ELEMENTS
C H O N HE
END
SPECIES

N2	HE

!MID-CHAINS
 P-C21H42-P_S P-C21H42-P  P-C21H41-P  

!END-CHAINS
 P-C21H43    P-C21H41    P-C21H42    P-C21H42_T  P-C21H40    
 P-C21H40_A  

!unreactive LMW
 CH4         C2H6        C3H8        NC4H10      NC5H12      
 C6H14       NC7H16      C8H18       C9H20       NC10H22     
 C2H4        C3H6        C4H8-1      NC5H10      NC6H12      
 NC7H14      C8H16       C9H18       NC10H20     C4H6        
 LC5H8       DIALLYL     C7H12       C8H14       C9H16       
 C10H18      

!stable LLMW
 C15H32          C21H44          C30H62          C39H80         
 C15H30          C21H42          C30H60          C39H78         
 C15H28          C21H40          C30H58          C39H76         

!radicals LLMW
 C15H31          C21H43          C30H61          C39H79         
 C15H31_T        C21H43_T        C30H61_T        C39H79_T       
 C15H29          C21H41          C30H59          C39H77         
 C15H29_T        C21H41_T        C30H59_T        C39H77_T       
 C15H29_A        C21H41_A        C30H59_A        C39H77_A       
 C15H27          C21H39          C30H57          C39H75         
 C15H27_A        C21H39_A        C30H57_A        C39H75_A       

END

REACTIONS MAXSP=100

!***************************************!
!	Random Scission
!***************************************!


!!!!!!!!!!  Small Reactive  !!!!!!!!!!

!!         C15H32(L)         !!
2.2C15H28+4.4C15H30+7.2C15H32=>2.2C15H27+4.4C15H29+2.2C15H31+C2H6+C3H8+NC4H10+NC5H12+C6H14+C9H20+2.8NC10H22+1.2C15H31_T 6.56e+10 1.00 78000
	FORD/C15H28 0/
	FORD/C15H30 0/
	FORD/C15H32 2/
2.2C21H40+4.4C21H42+2.2C21H44+5.0C15H32=>2.2C21H39+4.4C21H41+2.2C21H43+C2H6+C3H8+NC4H10+NC5H12+C6H14+C9H20+2.8NC10H22+1.2C15H31_T 6.56e+10 1.00 78000
	FORD/C21H40 0/
	FORD/C21H42 0/
	FORD/C21H44 1/
	FORD/C15H32 1/
2.2C30H58+4.4C30H60+2.2C30H62+5.0C15H32=>2.2C30H57+4.4C30H59+2.2C30H61+C2H6+C3H8+NC4H10+NC5H12+C6H14+C9H20+2.8NC10H22+1.2C15H31_T 6.56e+10 1.00 78000
	FORD/C30H58 0/
	FORD/C30H60 0/
	FORD/C30H62 1/
	FORD/C15H32 1/
2.2C39H76+4.4C39H78+2.2C39H80+5.0C15H32=>2.2C39H75+4.4C39H77+2.2C39H79+C2H6+C3H8+NC4H10+NC5H12+C6H14+C9H20+2.8NC10H22+1.2C15H31_T 6.56e+10 1.00 78000
	FORD/C39H76 0/
	FORD/C39H78 0/
	FORD/C39H80 1/
	FORD/C15H32 1/
2.45C15H28+4.9C15H30+7.45C15H32=>2.45C15H27+4.9C15H29+2.45C15H31+NC4H10+NC5H12+C6H14+2.0NC7H16+2.0C8H18+C9H20+1.8NC10H22+0.2C15H31_T 6.56e+10 1.00 78000
	FORD/C15H28 0/
	FORD/C15H30 0/
	FORD/C15H32 2/
2.45C21H40+4.9C21H42+2.45C21H44+5.0C15H32=>2.45C21H39+4.9C21H41+2.45C21H43+NC4H10+NC5H12+C6H14+2.0NC7H16+2.0C8H18+C9H20+1.8NC10H22+0.2C15H31_T 6.56e+10 1.00 78000
	FORD/C21H40 0/
	FORD/C21H42 0/
	FORD/C21H44 1/
	FORD/C15H32 1/
2.45C30H58+4.9C30H60+2.45C30H62+5.0C15H32=>2.45C30H57+4.9C30H59+2.45C30H61+NC4H10+NC5H12+C6H14+2.0NC7H16+2.0C8H18+C9H20+1.8NC10H22+0.2C15H31_T 6.56e+10 1.00 78000
	FORD/C30H58 0/
	FORD/C30H60 0/
	FORD/C30H62 1/
	FORD/C15H32 1/
2.45C39H76+4.9C39H78+2.45C39H80+5.0C15H32=>2.45C39H75+4.9C39H77+2.45C39H79+NC4H10+NC5H12+C6H14+2.0NC7H16+2.0C8H18+C9H20+1.8NC10H22+0.2C15H31_T 6.56e+10 1.00 78000
	FORD/C39H76 0/
	FORD/C39H78 0/
	FORD/C39H80 1/
	FORD/C15H32 1/
0.75C15H28+1.5C15H30+2.75C15H32=>0.75C15H27+1.5C15H29+0.75C15H31+C2H6+C3H8+NC10H22+C15H31_T                             6.56e+10 1.00 78000
	FORD/C15H28 0/
	FORD/C15H30 0/
	FORD/C15H32 2/
0.75C21H40+1.5C21H42+0.75C21H44+2.0C15H32=>0.75C21H39+1.5C21H41+0.75C21H43+C2H6+C3H8+NC10H22+C15H31_T                6.56e+10 1.00 78000
	FORD/C21H40 0/
	FORD/C21H42 0/
	FORD/C21H44 1/
	FORD/C15H32 1/
0.75C30H58+1.5C30H60+0.75C30H62+2.0C15H32=>0.75C30H57+1.5C30H59+0.75C30H61+C2H6+C3H8+NC10H22+C15H31_T                6.56e+10 1.00 78000
	FORD/C30H58 0/
	FORD/C30H60 0/
	FORD/C30H62 1/
	FORD/C15H32 1/
0.75C39H76+1.5C39H78+0.75C39H80+2.0C15H32=>0.75C39H75+1.5C39H77+0.75C39H79+C2H6+C3H8+NC10H22+C15H31_T                6.56e+10 1.00 78000
	FORD/C39H76 0/
	FORD/C39H78 0/
	FORD/C39H80 1/
	FORD/C15H32 1/
!!         C15H30(L)         !!
2.45C15H28+9.9C15H30+2.45C15H32=>2.45C15H27+4.9C15H29+2.45C15H31+NC7H16+C8H18+C9H20+1.8NC10H22+C4H8-1+NC5H10+NC6H12+NC7H14+C8H16+0.2C15H31_T 6.56e+10 1.00 78000
	FORD/C15H28 0/
	FORD/C15H30 1/
	FORD/C15H32 1/
2.45C21H40+4.9C21H42+2.45C21H44+5.0C15H30=>2.45C21H39+4.9C21H41+2.45C21H43+NC7H16+C8H18+C9H20+1.8NC10H22+C4H8-1+NC5H10+NC6H12+NC7H14+C8H16+0.2C15H31_T 6.56e+10 1.00 78000
	FORD/C21H40 0/
	FORD/C21H42 0/
	FORD/C21H44 1/
	FORD/C15H30 1/
2.45C30H58+4.9C30H60+2.45C30H62+5.0C15H30=>2.45C30H57+4.9C30H59+2.45C30H61+NC7H16+C8H18+C9H20+1.8NC10H22+C4H8-1+NC5H10+NC6H12+NC7H14+C8H16+0.2C15H31_T 6.56e+10 1.00 78000
	FORD/C30H58 0/
	FORD/C30H60 0/
	FORD/C30H62 1/
	FORD/C15H30 1/
2.45C39H76+4.9C39H78+2.45C39H80+5.0C15H30=>2.45C39H75+4.9C39H77+2.45C39H79+NC7H16+C8H18+C9H20+1.8NC10H22+C4H8-1+NC5H10+NC6H12+NC7H14+C8H16+0.2C15H31_T 6.56e+10 1.00 78000
	FORD/C39H76 0/
	FORD/C39H78 0/
	FORD/C39H80 1/
	FORD/C15H30 1/
2.2C15H28+9.4C15H30+2.2C15H32=>2.2C15H27+4.4C15H29+2.2C15H31+C2H6+C3H8+NC4H10+NC5H12+C6H14+C9H18+2.8NC10H20+1.2C15H29_T 6.56e+10 1.00 78000
	FORD/C15H28 0/
	FORD/C15H30 1/
	FORD/C15H32 1/
2.2C21H40+4.4C21H42+2.2C21H44+5.0C15H30=>2.2C21H39+4.4C21H41+2.2C21H43+C2H6+C3H8+NC4H10+NC5H12+C6H14+C9H18+2.8NC10H20+1.2C15H29_T 6.56e+10 1.00 78000
	FORD/C21H40 0/
	FORD/C21H42 0/
	FORD/C21H44 1/
	FORD/C15H30 1/
2.2C30H58+4.4C30H60+2.2C30H62+5.0C15H30=>2.2C30H57+4.4C30H59+2.2C30H61+C2H6+C3H8+NC4H10+NC5H12+C6H14+C9H18+2.8NC10H20+1.2C15H29_T 6.56e+10 1.00 78000
	FORD/C30H58 0/
	FORD/C30H60 0/
	FORD/C30H62 1/
	FORD/C15H30 1/
2.2C39H76+4.4C39H78+2.2C39H80+5.0C15H30=>2.2C39H75+4.4C39H77+2.2C39H79+C2H6+C3H8+NC4H10+NC5H12+C6H14+C9H18+2.8NC10H20+1.2C15H29_T 6.56e+10 1.00 78000
	FORD/C39H76 0/
	FORD/C39H78 0/
	FORD/C39H80 1/
	FORD/C15H30 1/
!!         C15H28(L)         !!
7.45C15H28+4.9C15H30+2.45C15H32=>2.45C15H27+4.9C15H29+2.45C15H31+C4H8-1+NC5H10+NC6H12+2.0NC7H14+2.0C8H16+C9H18+1.8NC10H20+0.2C15H29_T 6.56e+10 1.00 78000
	FORD/C15H28 1/
	FORD/C15H30 0/
	FORD/C15H32 1/
2.45C21H40+4.9C21H42+2.45C21H44+5.0C15H28=>2.45C21H39+4.9C21H41+2.45C21H43+C4H8-1+NC5H10+NC6H12+2.0NC7H14+2.0C8H16+C9H18+1.8NC10H20+0.2C15H29_T 6.56e+10 1.00 78000
	FORD/C21H40 0/
	FORD/C21H42 0/
	FORD/C21H44 1/
	FORD/C15H28 1/
2.45C30H58+4.9C30H60+2.45C30H62+5.0C15H28=>2.45C30H57+4.9C30H59+2.45C30H61+C4H8-1+NC5H10+NC6H12+2.0NC7H14+2.0C8H16+C9H18+1.8NC10H20+0.2C15H29_T 6.56e+10 1.00 78000
	FORD/C30H58 0/
	FORD/C30H60 0/
	FORD/C30H62 1/
	FORD/C15H28 1/
2.45C39H76+4.9C39H78+2.45C39H80+5.0C15H28=>2.45C39H75+4.9C39H77+2.45C39H79+C4H8-1+NC5H10+NC6H12+2.0NC7H14+2.0C8H16+C9H18+1.8NC10H20+0.2C15H29_T 6.56e+10 1.00 78000
	FORD/C39H76 0/
	FORD/C39H78 0/
	FORD/C39H80 1/
	FORD/C15H28 1/
4.45C15H28+2.9C15H30+1.45C15H32=>1.45C15H27+2.9C15H29+1.45C15H31+C4H8-1+NC5H10+NC6H12+C9H18+1.8NC10H20+0.2C15H29_T 6.56e+10 1.00 78000
	FORD/C15H28 1/
	FORD/C15H30 0/
	FORD/C15H32 1/
1.45C21H40+2.9C21H42+1.45C21H44+3.0C15H28=>1.45C21H39+2.9C21H41+1.45C21H43+C4H8-1+NC5H10+NC6H12+C9H18+1.8NC10H20+0.2C15H29_T 6.56e+10 1.00 78000
	FORD/C21H40 0/
	FORD/C21H42 0/
	FORD/C21H44 1/
	FORD/C15H28 1/
1.45C30H58+2.9C30H60+1.45C30H62+3.0C15H28=>1.45C30H57+2.9C30H59+1.45C30H61+C4H8-1+NC5H10+NC6H12+C9H18+1.8NC10H20+0.2C15H29_T 6.56e+10 1.00 78000
	FORD/C30H58 0/
	FORD/C30H60 0/
	FORD/C30H62 1/
	FORD/C15H28 1/
1.45C39H76+2.9C39H78+1.45C39H80+3.0C15H28=>1.45C39H75+2.9C39H77+1.45C39H79+C4H8-1+NC5H10+NC6H12+C9H18+1.8NC10H20+0.2C15H29_T 6.56e+10 1.00 78000
	FORD/C39H76 0/
	FORD/C39H78 0/
	FORD/C39H80 1/
	FORD/C15H28 1/
!!         C21H44(L)         !!
1.25C15H28+2.5C15H30+1.25C15H32+5.0C21H44=>1.25C15H27+2.5C15H29+1.25C15H31+C2H6+C3H8+NC4H10+NC5H12+C6H14+3.3333333C15H31_T+1.6666667C21H43_T 6.56e+10 1.00 78000
	FORD/C15H28 0/
	FORD/C15H30 0/
	FORD/C15H32 1/
	FORD/C21H44 1/
1.25C21H40+2.5C21H42+6.25C21H44=>1.25C21H39+2.5C21H41+1.25C21H43+C2H6+C3H8+NC4H10+NC5H12+C6H14+3.3333333C15H31_T+1.6666667C21H43_T 6.56e+10 1.00 78000
	FORD/C21H40 0/
	FORD/C21H42 0/
	FORD/C21H44 2/
1.25C30H58+2.5C30H60+1.25C30H62+5.0C21H44=>1.25C30H57+2.5C30H59+1.25C30H61+C2H6+C3H8+NC4H10+NC5H12+C6H14+3.3333333C15H31_T+1.6666667C21H43_T 6.56e+10 1.00 78000
	FORD/C30H58 0/
	FORD/C30H60 0/
	FORD/C30H62 1/
	FORD/C21H44 1/
1.25C39H76+2.5C39H78+1.25C39H80+5.0C21H44=>1.25C39H75+2.5C39H77+1.25C39H79+C2H6+C3H8+NC4H10+NC5H12+C6H14+3.3333333C15H31_T+1.6666667C21H43_T 6.56e+10 1.00 78000
	FORD/C39H76 0/
	FORD/C39H78 0/
	FORD/C39H80 1/
	FORD/C21H44 1/
1.95C15H28+3.9C15H30+1.95C15H32+5.0C21H44=>1.95C15H27+3.9C15H29+1.95C15H31+NC7H16+C8H18+C9H20+4.8NC10H22+2.2C15H31_T 6.56e+10 1.00 78000
	FORD/C15H28 0/
	FORD/C15H30 0/
	FORD/C15H32 1/
	FORD/C21H44 1/
1.95C21H40+3.9C21H42+6.95C21H44=>1.95C21H39+3.9C21H41+1.95C21H43+NC7H16+C8H18+C9H20+4.8NC10H22+2.2C15H31_T           6.56e+10 1.00 78000
	FORD/C21H40 0/
	FORD/C21H42 0/
	FORD/C21H44 2/
1.95C30H58+3.9C30H60+1.95C30H62+5.0C21H44=>1.95C30H57+3.9C30H59+1.95C30H61+NC7H16+C8H18+C9H20+4.8NC10H22+2.2C15H31_T 6.56e+10 1.00 78000
	FORD/C30H58 0/
	FORD/C30H60 0/
	FORD/C30H62 1/
	FORD/C21H44 1/
1.95C39H76+3.9C39H78+1.95C39H80+5.0C21H44=>1.95C39H75+3.9C39H77+1.95C39H79+NC7H16+C8H18+C9H20+4.8NC10H22+2.2C15H31_T 6.56e+10 1.00 78000
	FORD/C39H76 0/
	FORD/C39H78 0/
	FORD/C39H80 1/
	FORD/C21H44 1/
1.55C15H28+3.1C15H30+1.55C15H32+5.0C21H44=>1.55C15H27+3.1C15H29+1.55C15H31+NC5H12+C6H14+NC7H16+C8H18+C9H20+1.2NC10H22+3.6333333C15H31_T+0.1666667C21H43_T 6.56e+10 1.00 78000
	FORD/C15H28 0/
	FORD/C15H30 0/
	FORD/C15H32 1/
	FORD/C21H44 1/
1.55C21H40+3.1C21H42+6.55C21H44=>1.55C21H39+3.1C21H41+1.55C21H43+NC5H12+C6H14+NC7H16+C8H18+C9H20+1.2NC10H22+3.6333333C15H31_T+0.1666667C21H43_T 6.56e+10 1.00 78000
	FORD/C21H40 0/
	FORD/C21H42 0/
	FORD/C21H44 2/
1.55C30H58+3.1C30H60+1.55C30H62+5.0C21H44=>1.55C30H57+3.1C30H59+1.55C30H61+NC5H12+C6H14+NC7H16+C8H18+C9H20+1.2NC10H22+3.6333333C15H31_T+0.1666667C21H43_T 6.56e+10 1.00 78000
	FORD/C30H58 0/
	FORD/C30H60 0/
	FORD/C30H62 1/
	FORD/C21H44 1/
1.55C39H76+3.1C39H78+1.55C39H80+5.0C21H44=>1.55C39H75+3.1C39H77+1.55C39H79+NC5H12+C6H14+NC7H16+C8H18+C9H20+1.2NC10H22+3.6333333C15H31_T+0.1666667C21H43_T 6.56e+10 1.00 78000
	FORD/C39H76 0/
	FORD/C39H78 0/
	FORD/C39H80 1/
	FORD/C21H44 1/
0.75C15H28+1.5C15H30+0.75C15H32+3.0C21H44=>0.75C15H27+1.5C15H29+0.75C15H31+C2H6+C3H8+NC4H10+1.5C15H31_T+1.5C21H43_T 6.56e+10 1.00 78000
	FORD/C15H28 0/
	FORD/C15H30 0/
	FORD/C15H32 1/
	FORD/C21H44 1/
0.75C21H40+1.5C21H42+3.75C21H44=>0.75C21H39+1.5C21H41+0.75C21H43+C2H6+C3H8+NC4H10+1.5C15H31_T+1.5C21H43_T            6.56e+10 1.00 78000
	FORD/C21H40 0/
	FORD/C21H42 0/
	FORD/C21H44 2/
0.75C30H58+1.5C30H60+0.75C30H62+3.0C21H44=>0.75C30H57+1.5C30H59+0.75C30H61+C2H6+C3H8+NC4H10+1.5C15H31_T+1.5C21H43_T 6.56e+10 1.00 78000
	FORD/C30H58 0/
	FORD/C30H60 0/
	FORD/C30H62 1/
	FORD/C21H44 1/
0.75C39H76+1.5C39H78+0.75C39H80+3.0C21H44=>0.75C39H75+1.5C39H77+0.75C39H79+C2H6+C3H8+NC4H10+1.5C15H31_T+1.5C21H43_T 6.56e+10 1.00 78000
	FORD/C39H76 0/
	FORD/C39H78 0/
	FORD/C39H80 1/
	FORD/C21H44 1/
!!         C21H42(L)         !!
1.4C15H28+2.8C15H30+1.4C15H32+5.0C21H42=>1.4C15H27+2.8C15H29+1.4C15H31+0.6NC10H22+C4H8-1+NC5H10+NC6H12+NC7H14+C8H16+3.9C15H31_T+0.5C21H43_T 6.56e+10 1.00 78000
	FORD/C15H28 0/
	FORD/C15H30 0/
	FORD/C15H32 1/
	FORD/C21H42 1/
1.4C21H40+7.8C21H42+1.4C21H44=>1.4C21H39+2.8C21H41+1.4C21H43+0.6NC10H22+C4H8-1+NC5H10+NC6H12+NC7H14+C8H16+3.9C15H31_T+0.5C21H43_T 6.56e+10 1.00 78000
	FORD/C21H40 0/
	FORD/C21H42 1/
	FORD/C21H44 1/
1.4C30H58+2.8C30H60+1.4C30H62+5.0C21H42=>1.4C30H57+2.8C30H59+1.4C30H61+0.6NC10H22+C4H8-1+NC5H10+NC6H12+NC7H14+C8H16+3.9C15H31_T+0.5C21H43_T 6.56e+10 1.00 78000
	FORD/C30H58 0/
	FORD/C30H60 0/
	FORD/C30H62 1/
	FORD/C21H42 1/
1.4C39H76+2.8C39H78+1.4C39H80+5.0C21H42=>1.4C39H75+2.8C39H77+1.4C39H79+0.6NC10H22+C4H8-1+NC5H10+NC6H12+NC7H14+C8H16+3.9C15H31_T+0.5C21H43_T 6.56e+10 1.00 78000
	FORD/C39H76 0/
	FORD/C39H78 0/
	FORD/C39H80 1/
	FORD/C21H42 1/
2.05C15H28+4.1C15H30+2.05C15H32+5.0C21H42=>2.05C15H27+4.1C15H29+2.05C15H31+C8H18+C9H20+2.4NC10H22+C9H18+2.8NC10H20+0.6C15H31_T+1.2C15H29_T 6.56e+10 1.00 78000
	FORD/C15H28 0/
	FORD/C15H30 0/
	FORD/C15H32 1/
	FORD/C21H42 1/
2.05C21H40+9.1C21H42+2.05C21H44=>2.05C21H39+4.1C21H41+2.05C21H43+C8H18+C9H20+2.4NC10H22+C9H18+2.8NC10H20+0.6C15H31_T+1.2C15H29_T 6.56e+10 1.00 78000
	FORD/C21H40 0/
	FORD/C21H42 1/
	FORD/C21H44 1/
2.05C30H58+4.1C30H60+2.05C30H62+5.0C21H42=>2.05C30H57+4.1C30H59+2.05C30H61+C8H18+C9H20+2.4NC10H22+C9H18+2.8NC10H20+0.6C15H31_T+1.2C15H29_T 6.56e+10 1.00 78000
	FORD/C30H58 0/
	FORD/C30H60 0/
	FORD/C30H62 1/
	FORD/C21H42 1/
2.05C39H76+4.1C39H78+2.05C39H80+5.0C21H42=>2.05C39H75+4.1C39H77+2.05C39H79+C8H18+C9H20+2.4NC10H22+C9H18+2.8NC10H20+0.6C15H31_T+1.2C15H29_T 6.56e+10 1.00 78000
	FORD/C39H76 0/
	FORD/C39H78 0/
	FORD/C39H80 1/
	FORD/C21H42 1/
1.3C15H28+2.6C15H30+1.3C15H32+5.0C21H42=>1.3C15H27+2.6C15H29+1.3C15H31+C3H8+NC4H10+NC5H12+C6H14+NC7H16+0.2NC10H20+3.8C15H29_T+C21H41_T 6.56e+10 1.00 78000
	FORD/C15H28 0/
	FORD/C15H30 0/
	FORD/C15H32 1/
	FORD/C21H42 1/
1.3C21H40+7.6C21H42+1.3C21H44=>1.3C21H39+2.6C21H41+1.3C21H43+C3H8+NC4H10+NC5H12+C6H14+NC7H16+0.2NC10H20+3.8C15H29_T+C21H41_T 6.56e+10 1.00 78000
	FORD/C21H40 0/
	FORD/C21H42 1/
	FORD/C21H44 1/
1.3C30H58+2.6C30H60+1.3C30H62+5.0C21H42=>1.3C30H57+2.6C30H59+1.3C30H61+C3H8+NC4H10+NC5H12+C6H14+NC7H16+0.2NC10H20+3.8C15H29_T+C21H41_T 6.56e+10 1.00 78000
	FORD/C30H58 0/
	FORD/C30H60 0/
	FORD/C30H62 1/
	FORD/C21H42 1/
1.3C39H76+2.6C39H78+1.3C39H80+5.0C21H42=>1.3C39H75+2.6C39H77+1.3C39H79+C3H8+NC4H10+NC5H12+C6H14+NC7H16+0.2NC10H20+3.8C15H29_T+C21H41_T 6.56e+10 1.00 78000
	FORD/C39H76 0/
	FORD/C39H78 0/
	FORD/C39H80 1/
	FORD/C21H42 1/
0.25C15H28+0.5C15H30+0.25C15H32+C21H42=>0.25C15H27+0.5C15H29+0.25C15H31+C2H6+0.3333333C15H29_T+0.6666667C21H41_T        6.56e+10 1.00 78000
	FORD/C15H28 0/
	FORD/C15H30 0/
	FORD/C15H32 1/
	FORD/C21H42 1/
0.25C21H40+1.5C21H42+0.25C21H44=>0.25C21H39+0.5C21H41+0.25C21H43+C2H6+0.3333333C15H29_T+0.6666667C21H41_T                  6.56e+10 1.00 78000
	FORD/C21H40 0/
	FORD/C21H42 1/
	FORD/C21H44 1/
0.25C30H58+0.5C30H60+0.25C30H62+C21H42=>0.25C30H57+0.5C30H59+0.25C30H61+C2H6+0.3333333C15H29_T+0.6666667C21H41_T        6.56e+10 1.00 78000
	FORD/C30H58 0/
	FORD/C30H60 0/
	FORD/C30H62 1/
	FORD/C21H42 1/
0.25C39H76+0.5C39H78+0.25C39H80+C21H42=>0.25C39H75+0.5C39H77+0.25C39H79+C2H6+0.3333333C15H29_T+0.6666667C21H41_T        6.56e+10 1.00 78000
	FORD/C39H76 0/
	FORD/C39H78 0/
	FORD/C39H80 1/
	FORD/C21H42 1/
!!         C21H40(L)         !!
1.4C15H28+2.8C15H30+1.4C15H32+5.0C21H40=>1.4C15H27+2.8C15H29+1.4C15H31+C4H8-1+NC5H10+NC6H12+NC7H14+C8H16+0.6NC10H20+3.9C15H29_T+0.5C21H41_T 6.56e+10 1.00 78000
	FORD/C15H28 0/
	FORD/C15H30 0/
	FORD/C15H32 1/
	FORD/C21H40 1/
6.4C21H40+2.8C21H42+1.4C21H44=>1.4C21H39+2.8C21H41+1.4C21H43+C4H8-1+NC5H10+NC6H12+NC7H14+C8H16+0.6NC10H20+3.9C15H29_T+0.5C21H41_T 6.56e+10 1.00 78000
	FORD/C21H40 1/
	FORD/C21H42 0/
	FORD/C21H44 1/
1.4C30H58+2.8C30H60+1.4C30H62+5.0C21H40=>1.4C30H57+2.8C30H59+1.4C30H61+C4H8-1+NC5H10+NC6H12+NC7H14+C8H16+0.6NC10H20+3.9C15H29_T+0.5C21H41_T 6.56e+10 1.00 78000
	FORD/C30H58 0/
	FORD/C30H60 0/
	FORD/C30H62 1/
	FORD/C21H40 1/
1.4C39H76+2.8C39H78+1.4C39H80+5.0C21H40=>1.4C39H75+2.8C39H77+1.4C39H79+C4H8-1+NC5H10+NC6H12+NC7H14+C8H16+0.6NC10H20+3.9C15H29_T+0.5C21H41_T 6.56e+10 1.00 78000
	FORD/C39H76 0/
	FORD/C39H78 0/
	FORD/C39H80 1/
	FORD/C21H40 1/
2.05C15H28+4.1C15H30+2.05C15H32+5.0C21H40=>2.05C15H27+4.1C15H29+2.05C15H31+C8H16+2.0C9H18+5.2NC10H20+1.8C15H29_T     6.56e+10 1.00 78000
	FORD/C15H28 0/
	FORD/C15H30 0/
	FORD/C15H32 1/
	FORD/C21H40 1/
7.05C21H40+4.1C21H42+2.05C21H44=>2.05C21H39+4.1C21H41+2.05C21H43+C8H16+2.0C9H18+5.2NC10H20+1.8C15H29_T                  6.56e+10 1.00 78000
	FORD/C21H40 1/
	FORD/C21H42 0/
	FORD/C21H44 1/
2.05C30H58+4.1C30H60+2.05C30H62+5.0C21H40=>2.05C30H57+4.1C30H59+2.05C30H61+C8H16+2.0C9H18+5.2NC10H20+1.8C15H29_T     6.56e+10 1.00 78000
	FORD/C30H58 0/
	FORD/C30H60 0/
	FORD/C30H62 1/
	FORD/C21H40 1/
2.05C39H76+4.1C39H78+2.05C39H80+5.0C21H40=>2.05C39H75+4.1C39H77+2.05C39H79+C8H16+2.0C9H18+5.2NC10H20+1.8C15H29_T     6.56e+10 1.00 78000
	FORD/C39H76 0/
	FORD/C39H78 0/
	FORD/C39H80 1/
	FORD/C21H40 1/
1.05C15H28+2.1C15H30+1.05C15H32+4.0C21H40=>1.05C15H27+2.1C15H29+1.05C15H31+C4H8-1+NC5H10+NC6H12+NC7H14+0.2NC10H20+3.3C15H29_T+0.5C21H41_T 6.56e+10 1.00 78000
	FORD/C15H28 0/
	FORD/C15H30 0/
	FORD/C15H32 1/
	FORD/C21H40 1/
5.05C21H40+2.1C21H42+1.05C21H44=>1.05C21H39+2.1C21H41+1.05C21H43+C4H8-1+NC5H10+NC6H12+NC7H14+0.2NC10H20+3.3C15H29_T+0.5C21H41_T 6.56e+10 1.00 78000
	FORD/C21H40 1/
	FORD/C21H42 0/
	FORD/C21H44 1/
1.05C30H58+2.1C30H60+1.05C30H62+4.0C21H40=>1.05C30H57+2.1C30H59+1.05C30H61+C4H8-1+NC5H10+NC6H12+NC7H14+0.2NC10H20+3.3C15H29_T+0.5C21H41_T 6.56e+10 1.00 78000
	FORD/C30H58 0/
	FORD/C30H60 0/
	FORD/C30H62 1/
	FORD/C21H40 1/
1.05C39H76+2.1C39H78+1.05C39H80+4.0C21H40=>1.05C39H75+2.1C39H77+1.05C39H79+C4H8-1+NC5H10+NC6H12+NC7H14+0.2NC10H20+3.3C15H29_T+0.5C21H41_T 6.56e+10 1.00 78000
	FORD/C39H76 0/
	FORD/C39H78 0/
	FORD/C39H80 1/
	FORD/C21H40 1/
!!         C30H62(L)         !!
1.25C15H28+2.5C15H30+1.25C15H32+5.0C30H62=>1.25C15H27+2.5C15H29+1.25C15H31+C2H6+C3H8+NC4H10+NC5H12+C6H14+2.2222222C21H43_T+2.7777778C30H61_T 6.56e+10 1.00 78000
	FORD/C15H28 0/
	FORD/C15H30 0/
	FORD/C15H32 1/
	FORD/C30H62 1/
1.25C21H40+2.5C21H42+1.25C21H44+5.0C30H62=>1.25C21H39+2.5C21H41+1.25C21H43+C2H6+C3H8+NC4H10+NC5H12+C6H14+2.2222222C21H43_T+2.7777778C30H61_T 6.56e+10 1.00 78000
	FORD/C21H40 0/
	FORD/C21H42 0/
	FORD/C21H44 1/
	FORD/C30H62 1/
1.25C30H58+2.5C30H60+6.25C30H62=>1.25C30H57+2.5C30H59+1.25C30H61+C2H6+C3H8+NC4H10+NC5H12+C6H14+2.2222222C21H43_T+2.7777778C30H61_T 6.56e+10 1.00 78000
	FORD/C30H58 0/
	FORD/C30H60 0/
	FORD/C30H62 2/
1.25C39H76+2.5C39H78+1.25C39H80+5.0C30H62=>1.25C39H75+2.5C39H77+1.25C39H79+C2H6+C3H8+NC4H10+NC5H12+C6H14+2.2222222C21H43_T+2.7777778C30H61_T 6.56e+10 1.00 78000
	FORD/C39H76 0/
	FORD/C39H78 0/
	FORD/C39H80 1/
	FORD/C30H62 1/
1.2C15H28+2.4C15H30+1.2C15H32+5.0C30H62=>1.2C15H27+2.4C15H29+1.2C15H31+NC7H16+C8H18+C9H20+1.8NC10H22+0.7C15H31_T+4.1666667C21H43_T+0.3333333C30H61_T 6.56e+10 1.00 78000
	FORD/C15H28 0/
	FORD/C15H30 0/
	FORD/C15H32 1/
	FORD/C30H62 1/
1.2C21H40+2.4C21H42+1.2C21H44+5.0C30H62=>1.2C21H39+2.4C21H41+1.2C21H43+NC7H16+C8H18+C9H20+1.8NC10H22+0.7C15H31_T+4.1666667C21H43_T+0.3333333C30H61_T 6.56e+10 1.00 78000
	FORD/C21H40 0/
	FORD/C21H42 0/
	FORD/C21H44 1/
	FORD/C30H62 1/
1.2C30H58+2.4C30H60+6.2C30H62=>1.2C30H57+2.4C30H59+1.2C30H61+NC7H16+C8H18+C9H20+1.8NC10H22+0.7C15H31_T+4.1666667C21H43_T+0.3333333C30H61_T 6.56e+10 1.00 78000
	FORD/C30H58 0/
	FORD/C30H60 0/
	FORD/C30H62 2/
1.2C39H76+2.4C39H78+1.2C39H80+5.0C30H62=>1.2C39H75+2.4C39H77+1.2C39H79+NC7H16+C8H18+C9H20+1.8NC10H22+0.7C15H31_T+4.1666667C21H43_T+0.3333333C30H61_T 6.56e+10 1.00 78000
	FORD/C39H76 0/
	FORD/C39H78 0/
	FORD/C39H80 1/
	FORD/C30H62 1/
0.35C15H28+0.7C15H30+0.35C15H32+5.0C30H62=>0.35C15H27+0.7C15H29+0.35C15H31+1.4NC10H22+7.4333333C15H31_T+1.1666667C21H43_T 6.56e+10 1.00 78000
	FORD/C15H28 0/
	FORD/C15H30 0/
	FORD/C15H32 1/
	FORD/C30H62 1/
0.35C21H40+0.7C21H42+0.35C21H44+5.0C30H62=>0.35C21H39+0.7C21H41+0.35C21H43+1.4NC10H22+7.4333333C15H31_T+1.1666667C21H43_T 6.56e+10 1.00 78000
	FORD/C21H40 0/
	FORD/C21H42 0/
	FORD/C21H44 1/
	FORD/C30H62 1/
0.35C30H58+0.7C30H60+5.35C30H62=>0.35C30H57+0.7C30H59+0.35C30H61+1.4NC10H22+7.4333333C15H31_T+1.1666667C21H43_T            6.56e+10 1.00 78000
	FORD/C30H58 0/
	FORD/C30H60 0/
	FORD/C30H62 2/
0.35C39H76+0.7C39H78+0.35C39H80+5.0C30H62=>0.35C39H75+0.7C39H77+0.35C39H79+1.4NC10H22+7.4333333C15H31_T+1.1666667C21H43_T 6.56e+10 1.00 78000
	FORD/C39H76 0/
	FORD/C39H78 0/
	FORD/C39H80 1/
	FORD/C30H62 1/
0.95C15H28+1.9C15H30+0.95C15H32+5.0C30H62=>0.95C15H27+1.9C15H29+0.95C15H31+C9H20+2.8NC10H22+2.8666667C15H31_T+3.3333333C21H43_T 6.56e+10 1.00 78000
	FORD/C15H28 0/
	FORD/C15H30 0/
	FORD/C15H32 1/
	FORD/C30H62 1/
0.95C21H40+1.9C21H42+0.95C21H44+5.0C30H62=>0.95C21H39+1.9C21H41+0.95C21H43+C9H20+2.8NC10H22+2.8666667C15H31_T+3.3333333C21H43_T 6.56e+10 1.00 78000
	FORD/C21H40 0/
	FORD/C21H42 0/
	FORD/C21H44 1/
	FORD/C30H62 1/
0.95C30H58+1.9C30H60+5.95C30H62=>0.95C30H57+1.9C30H59+0.95C30H61+C9H20+2.8NC10H22+2.8666667C15H31_T+3.3333333C21H43_T   6.56e+10 1.00 78000
	FORD/C30H58 0/
	FORD/C30H60 0/
	FORD/C30H62 2/
0.95C39H76+1.9C39H78+0.95C39H80+5.0C30H62=>0.95C39H75+1.9C39H77+0.95C39H79+C9H20+2.8NC10H22+2.8666667C15H31_T+3.3333333C21H43_T 6.56e+10 1.00 78000
	FORD/C39H76 0/
	FORD/C39H78 0/
	FORD/C39H80 1/
	FORD/C30H62 1/
1.25C15H28+2.5C15H30+1.25C15H32+5.0C30H62=>1.25C15H27+2.5C15H29+1.25C15H31+NC4H10+NC5H12+C6H14+NC7H16+C8H18+3.3333333C21H43_T+1.6666667C30H61_T 6.56e+10 1.00 78000
	FORD/C15H28 0/
	FORD/C15H30 0/
	FORD/C15H32 1/
	FORD/C30H62 1/
1.25C21H40+2.5C21H42+1.25C21H44+5.0C30H62=>1.25C21H39+2.5C21H41+1.25C21H43+NC4H10+NC5H12+C6H14+NC7H16+C8H18+3.3333333C21H43_T+1.6666667C30H61_T 6.56e+10 1.00 78000
	FORD/C21H40 0/
	FORD/C21H42 0/
	FORD/C21H44 1/
	FORD/C30H62 1/
1.25C30H58+2.5C30H60+6.25C30H62=>1.25C30H57+2.5C30H59+1.25C30H61+NC4H10+NC5H12+C6H14+NC7H16+C8H18+3.3333333C21H43_T+1.6666667C30H61_T 6.56e+10 1.00 78000
	FORD/C30H58 0/
	FORD/C30H60 0/
	FORD/C30H62 2/
1.25C39H76+2.5C39H78+1.25C39H80+5.0C30H62=>1.25C39H75+2.5C39H77+1.25C39H79+NC4H10+NC5H12+C6H14+NC7H16+C8H18+3.3333333C21H43_T+1.6666667C30H61_T 6.56e+10 1.00 78000
	FORD/C39H76 0/
	FORD/C39H78 0/
	FORD/C39H80 1/
	FORD/C30H62 1/
0.5C15H28+C15H30+0.5C15H32+2.0C30H62=>0.5C15H27+C15H29+0.5C15H31+C2H6+C3H8+0.5555556C21H43_T+1.4444444C30H61_T       6.56e+10 1.00 78000
	FORD/C15H28 0/
	FORD/C15H30 0/
	FORD/C15H32 1/
	FORD/C30H62 1/
0.5C21H40+C21H42+0.5C21H44+2.0C30H62=>0.5C21H39+C21H41+0.5C21H43+C2H6+C3H8+0.5555556C21H43_T+1.4444444C30H61_T       6.56e+10 1.00 78000
	FORD/C21H40 0/
	FORD/C21H42 0/
	FORD/C21H44 1/
	FORD/C30H62 1/
0.5C30H58+C30H60+2.5C30H62=>0.5C30H57+C30H59+0.5C30H61+C2H6+C3H8+0.5555556C21H43_T+1.4444444C30H61_T                    6.56e+10 1.00 78000
	FORD/C30H58 0/
	FORD/C30H60 0/
	FORD/C30H62 2/
0.5C39H76+C39H78+0.5C39H80+2.0C30H62=>0.5C39H75+C39H77+0.5C39H79+C2H6+C3H8+0.5555556C21H43_T+1.4444444C30H61_T       6.56e+10 1.00 78000
	FORD/C39H76 0/
	FORD/C39H78 0/
	FORD/C39H80 1/
	FORD/C30H62 1/
!!         C30H60(L)         !!
1.25C15H28+2.5C15H30+1.25C15H32+5.0C30H60=>1.25C15H27+2.5C15H29+1.25C15H31+C4H8-1+NC5H10+NC6H12+NC7H14+C8H16+3.3333333C21H43_T+1.6666667C30H61_T 6.56e+10 1.00 78000
	FORD/C15H28 0/
	FORD/C15H30 0/
	FORD/C15H32 1/
	FORD/C30H60 1/
1.25C21H40+2.5C21H42+1.25C21H44+5.0C30H60=>1.25C21H39+2.5C21H41+1.25C21H43+C4H8-1+NC5H10+NC6H12+NC7H14+C8H16+3.3333333C21H43_T+1.6666667C30H61_T 6.56e+10 1.00 78000
	FORD/C21H40 0/
	FORD/C21H42 0/
	FORD/C21H44 1/
	FORD/C30H60 1/
1.25C30H58+7.5C30H60+1.25C30H62=>1.25C30H57+2.5C30H59+1.25C30H61+C4H8-1+NC5H10+NC6H12+NC7H14+C8H16+3.3333333C21H43_T+1.6666667C30H61_T 6.56e+10 1.00 78000
	FORD/C30H58 0/
	FORD/C30H60 1/
	FORD/C30H62 1/
1.25C39H76+2.5C39H78+1.25C39H80+5.0C30H60=>1.25C39H75+2.5C39H77+1.25C39H79+C4H8-1+NC5H10+NC6H12+NC7H14+C8H16+3.3333333C21H43_T+1.6666667C30H61_T 6.56e+10 1.00 78000
	FORD/C39H76 0/
	FORD/C39H78 0/
	FORD/C39H80 1/
	FORD/C30H60 1/
0.95C15H28+1.9C15H30+0.95C15H32+5.0C30H60=>0.95C15H27+1.9C15H29+0.95C15H31+C9H18+2.8NC10H20+1.6666667C15H31_T+1.2C15H29_T+3.3333333C21H43_T 6.56e+10 1.00 78000
	FORD/C15H28 0/
	FORD/C15H30 0/
	FORD/C15H32 1/
	FORD/C30H60 1/
0.95C21H40+1.9C21H42+0.95C21H44+5.0C30H60=>0.95C21H39+1.9C21H41+0.95C21H43+C9H18+2.8NC10H20+1.6666667C15H31_T+1.2C15H29_T+3.3333333C21H43_T 6.56e+10 1.00 78000
	FORD/C21H40 0/
	FORD/C21H42 0/
	FORD/C21H44 1/
	FORD/C30H60 1/
0.95C30H58+6.9C30H60+0.95C30H62=>0.95C30H57+1.9C30H59+0.95C30H61+C9H18+2.8NC10H20+1.6666667C15H31_T+1.2C15H29_T+3.3333333C21H43_T 6.56e+10 1.00 78000
	FORD/C30H58 0/
	FORD/C30H60 1/
	FORD/C30H62 1/
0.95C39H76+1.9C39H78+0.95C39H80+5.0C30H60=>0.95C39H75+1.9C39H77+0.95C39H79+C9H18+2.8NC10H20+1.6666667C15H31_T+1.2C15H29_T+3.3333333C21H43_T 6.56e+10 1.00 78000
	FORD/C39H76 0/
	FORD/C39H78 0/
	FORD/C39H80 1/
	FORD/C30H60 1/
0.35C15H28+0.7C15H30+0.35C15H32+5.0C30H60=>0.35C15H27+0.7C15H29+0.35C15H31+1.2NC10H22+0.2NC10H20+3.6333333C15H31_T+3.8C15H29_T+0.1666667C21H43_T+C21H41_T 6.56e+10 1.00 78000
	FORD/C15H28 0/
	FORD/C15H30 0/
	FORD/C15H32 1/
	FORD/C30H60 1/
0.35C21H40+0.7C21H42+0.35C21H44+5.0C30H60=>0.35C21H39+0.7C21H41+0.35C21H43+1.2NC10H22+0.2NC10H20+3.6333333C15H31_T+3.8C15H29_T+0.1666667C21H43_T+C21H41_T 6.56e+10 1.00 78000
	FORD/C21H40 0/
	FORD/C21H42 0/
	FORD/C21H44 1/
	FORD/C30H60 1/
0.35C30H58+5.7C30H60+0.35C30H62=>0.35C30H57+0.7C30H59+0.35C30H61+1.2NC10H22+0.2NC10H20+3.6333333C15H31_T+3.8C15H29_T+0.1666667C21H43_T+C21H41_T 6.56e+10 1.00 78000
	FORD/C30H58 0/
	FORD/C30H60 1/
	FORD/C30H62 1/
0.35C39H76+0.7C39H78+0.35C39H80+5.0C30H60=>0.35C39H75+0.7C39H77+0.35C39H79+1.2NC10H22+0.2NC10H20+3.6333333C15H31_T+3.8C15H29_T+0.1666667C21H43_T+C21H41_T 6.56e+10 1.00 78000
	FORD/C39H76 0/
	FORD/C39H78 0/
	FORD/C39H80 1/
	FORD/C30H60 1/
1.2C15H28+2.4C15H30+1.2C15H32+5.0C30H60=>1.2C15H27+2.4C15H29+1.2C15H31+NC7H16+C8H18+C9H20+1.8NC10H22+0.2C15H31_T+0.5C15H29_T+4.1666667C21H41_T+0.3333333C30H59_T 6.56e+10 1.00 78000
	FORD/C15H28 0/
	FORD/C15H30 0/
	FORD/C15H32 1/
	FORD/C30H60 1/
1.2C21H40+2.4C21H42+1.2C21H44+5.0C30H60=>1.2C21H39+2.4C21H41+1.2C21H43+NC7H16+C8H18+C9H20+1.8NC10H22+0.2C15H31_T+0.5C15H29_T+4.1666667C21H41_T+0.3333333C30H59_T 6.56e+10 1.00 78000
	FORD/C21H40 0/
	FORD/C21H42 0/
	FORD/C21H44 1/
	FORD/C30H60 1/
1.2C30H58+7.4C30H60+1.2C30H62=>1.2C30H57+2.4C30H59+1.2C30H61+NC7H16+C8H18+C9H20+1.8NC10H22+0.2C15H31_T+0.5C15H29_T+4.1666667C21H41_T+0.3333333C30H59_T 6.56e+10 1.00 78000
	FORD/C30H58 0/
	FORD/C30H60 1/
	FORD/C30H62 1/
1.2C39H76+2.4C39H78+1.2C39H80+5.0C30H60=>1.2C39H75+2.4C39H77+1.2C39H79+NC7H16+C8H18+C9H20+1.8NC10H22+0.2C15H31_T+0.5C15H29_T+4.1666667C21H41_T+0.3333333C30H59_T 6.56e+10 1.00 78000
	FORD/C39H76 0/
	FORD/C39H78 0/
	FORD/C39H80 1/
	FORD/C30H60 1/
1.25C15H28+2.5C15H30+1.25C15H32+5.0C30H60=>1.25C15H27+2.5C15H29+1.25C15H31+C2H6+C3H8+NC4H10+NC5H12+C6H14+2.2222222C21H41_T+2.7777778C30H59_T 6.56e+10 1.00 78000
	FORD/C15H28 0/
	FORD/C15H30 0/
	FORD/C15H32 1/
	FORD/C30H60 1/
1.25C21H40+2.5C21H42+1.25C21H44+5.0C30H60=>1.25C21H39+2.5C21H41+1.25C21H43+C2H6+C3H8+NC4H10+NC5H12+C6H14+2.2222222C21H41_T+2.7777778C30H59_T 6.56e+10 1.00 78000
	FORD/C21H40 0/
	FORD/C21H42 0/
	FORD/C21H44 1/
	FORD/C30H60 1/
1.25C30H58+7.5C30H60+1.25C30H62=>1.25C30H57+2.5C30H59+1.25C30H61+C2H6+C3H8+NC4H10+NC5H12+C6H14+2.2222222C21H41_T+2.7777778C30H59_T 6.56e+10 1.00 78000
	FORD/C30H58 0/
	FORD/C30H60 1/
	FORD/C30H62 1/
1.25C39H76+2.5C39H78+1.25C39H80+5.0C30H60=>1.25C39H75+2.5C39H77+1.25C39H79+C2H6+C3H8+NC4H10+NC5H12+C6H14+2.2222222C21H41_T+2.7777778C30H59_T 6.56e+10 1.00 78000
	FORD/C39H76 0/
	FORD/C39H78 0/
	FORD/C39H80 1/
	FORD/C30H60 1/
!!         C30H58(L)         !!
1.25C15H28+2.5C15H30+1.25C15H32+5.0C30H58=>1.25C15H27+2.5C15H29+1.25C15H31+C4H8-1+NC5H10+NC6H12+NC7H14+C8H16+3.3333333C21H41_T+1.6666667C30H59_T 6.56e+10 1.00 78000
	FORD/C15H28 0/
	FORD/C15H30 0/
	FORD/C15H32 1/
	FORD/C30H58 1/
1.25C21H40+2.5C21H42+1.25C21H44+5.0C30H58=>1.25C21H39+2.5C21H41+1.25C21H43+C4H8-1+NC5H10+NC6H12+NC7H14+C8H16+3.3333333C21H41_T+1.6666667C30H59_T 6.56e+10 1.00 78000
	FORD/C21H40 0/
	FORD/C21H42 0/
	FORD/C21H44 1/
	FORD/C30H58 1/
6.25C30H58+2.5C30H60+1.25C30H62=>1.25C30H57+2.5C30H59+1.25C30H61+C4H8-1+NC5H10+NC6H12+NC7H14+C8H16+3.3333333C21H41_T+1.6666667C30H59_T 6.56e+10 1.00 78000
	FORD/C30H58 1/
	FORD/C30H60 0/
	FORD/C30H62 1/
1.25C39H76+2.5C39H78+1.25C39H80+5.0C30H58=>1.25C39H75+2.5C39H77+1.25C39H79+C4H8-1+NC5H10+NC6H12+NC7H14+C8H16+3.3333333C21H41_T+1.6666667C30H59_T 6.56e+10 1.00 78000
	FORD/C39H76 0/
	FORD/C39H78 0/
	FORD/C39H80 1/
	FORD/C30H58 1/
0.95C15H28+1.9C15H30+0.95C15H32+5.0C30H58=>0.95C15H27+1.9C15H29+0.95C15H31+C9H18+2.8NC10H20+2.8666667C15H29_T+3.3333333C21H41_T 6.56e+10 1.00 78000
	FORD/C15H28 0/
	FORD/C15H30 0/
	FORD/C15H32 1/
	FORD/C30H58 1/
0.95C21H40+1.9C21H42+0.95C21H44+5.0C30H58=>0.95C21H39+1.9C21H41+0.95C21H43+C9H18+2.8NC10H20+2.8666667C15H29_T+3.3333333C21H41_T 6.56e+10 1.00 78000
	FORD/C21H40 0/
	FORD/C21H42 0/
	FORD/C21H44 1/
	FORD/C30H58 1/
5.95C30H58+1.9C30H60+0.95C30H62=>0.95C30H57+1.9C30H59+0.95C30H61+C9H18+2.8NC10H20+2.8666667C15H29_T+3.3333333C21H41_T   6.56e+10 1.00 78000
	FORD/C30H58 1/
	FORD/C30H60 0/
	FORD/C30H62 1/
0.95C39H76+1.9C39H78+0.95C39H80+5.0C30H58=>0.95C39H75+1.9C39H77+0.95C39H79+C9H18+2.8NC10H20+2.8666667C15H29_T+3.3333333C21H41_T 6.56e+10 1.00 78000
	FORD/C39H76 0/
	FORD/C39H78 0/
	FORD/C39H80 1/
	FORD/C30H58 1/
0.35C15H28+0.7C15H30+0.35C15H32+5.0C30H58=>0.35C15H27+0.7C15H29+0.35C15H31+1.4NC10H20+7.4333333C15H29_T+1.1666667C21H41_T 6.56e+10 1.00 78000
	FORD/C15H28 0/
	FORD/C15H30 0/
	FORD/C15H32 1/
	FORD/C30H58 1/
0.35C21H40+0.7C21H42+0.35C21H44+5.0C30H58=>0.35C21H39+0.7C21H41+0.35C21H43+1.4NC10H20+7.4333333C15H29_T+1.1666667C21H41_T 6.56e+10 1.00 78000
	FORD/C21H40 0/
	FORD/C21H42 0/
	FORD/C21H44 1/
	FORD/C30H58 1/
5.35C30H58+0.7C30H60+0.35C30H62=>0.35C30H57+0.7C30H59+0.35C30H61+1.4NC10H20+7.4333333C15H29_T+1.1666667C21H41_T            6.56e+10 1.00 78000
	FORD/C30H58 1/
	FORD/C30H60 0/
	FORD/C30H62 1/
0.35C39H76+0.7C39H78+0.35C39H80+5.0C30H58=>0.35C39H75+0.7C39H77+0.35C39H79+1.4NC10H20+7.4333333C15H29_T+1.1666667C21H41_T 6.56e+10 1.00 78000
	FORD/C39H76 0/
	FORD/C39H78 0/
	FORD/C39H80 1/
	FORD/C30H58 1/
1.2C15H28+2.4C15H30+1.2C15H32+5.0C30H58=>1.2C15H27+2.4C15H29+1.2C15H31+NC7H14+C8H16+C9H18+1.8NC10H20+0.7C15H29_T+4.1666667C21H41_T+0.3333333C30H59_T 6.56e+10 1.00 78000
	FORD/C15H28 0/
	FORD/C15H30 0/
	FORD/C15H32 1/
	FORD/C30H58 1/
1.2C21H40+2.4C21H42+1.2C21H44+5.0C30H58=>1.2C21H39+2.4C21H41+1.2C21H43+NC7H14+C8H16+C9H18+1.8NC10H20+0.7C15H29_T+4.1666667C21H41_T+0.3333333C30H59_T 6.56e+10 1.00 78000
	FORD/C21H40 0/
	FORD/C21H42 0/
	FORD/C21H44 1/
	FORD/C30H58 1/
6.2C30H58+2.4C30H60+1.2C30H62=>1.2C30H57+2.4C30H59+1.2C30H61+NC7H14+C8H16+C9H18+1.8NC10H20+0.7C15H29_T+4.1666667C21H41_T+0.3333333C30H59_T 6.56e+10 1.00 78000
	FORD/C30H58 1/
	FORD/C30H60 0/
	FORD/C30H62 1/
1.2C39H76+2.4C39H78+1.2C39H80+5.0C30H58=>1.2C39H75+2.4C39H77+1.2C39H79+NC7H14+C8H16+C9H18+1.8NC10H20+0.7C15H29_T+4.1666667C21H41_T+0.3333333C30H59_T 6.56e+10 1.00 78000
	FORD/C39H76 0/
	FORD/C39H78 0/
	FORD/C39H80 1/
	FORD/C30H58 1/