THERMO
   300.0   1000.0   3000.0


N2                G 8/02N   2    0    0    0G   200.000  6000.00  1000.00      1
 2.95257637E+00 1.39690040E-03-4.92631603E-07 7.86010195E-11-4.60755204E-15    2
-9.23948688E+02 5.87188762E+00 3.53100528E+00-1.23660988E-04-5.02999433E-07    3
 2.43530612E-09-1.40881235E-12-1.04697628E+03 2.96747038E+00 0.00000000E+00    4

N2(L)             G 8/02N   2    0    0    0G   200.000  6000.00  1000.00      1
 2.95257637E+00 1.39690040E-03-4.92631603E-07 7.86010195E-11-4.60755204E-15    2
-9.23948688E+02 5.87188762E+00 3.53100528E+00-1.23660988E-04-5.02999433E-07    3
 2.43530612E-09-1.40881235E-12-1.04697628E+03 2.96747038E+00 0.00000000E+00    4

HE                      HE  1               G    200.00   3500.00  850.00      1
 2.50020615e+00-5.42576298e-07 4.63926302e-10-1.57302170e-13 1.82971406e-17    2
-7.45426807e+02 9.27648988e-01 2.49964853e+00 2.08151569e-06-4.16682427e-09    3
 3.47465907e-12-1.04992675e-15-7.45332012e+02 9.30248556e-01                   4

P-C21H42-P_S(L)         C  21H  42O   0N   0G    200.00   2666.67 1500.00      1
-1.13171915E+02 6.53412263E-01-3.45511670E-04-1.10571941E-07 9.48079063E-11    2
-5.50969451E+04 5.23104380E+02-1.13171915E+02 6.53412263E-01-3.45511670E-04    3
-1.10571941E-07 9.48079063E-11-5.50969451E+04 5.23104380E+02                   4 
P-C21H42-P_S            C  21H  42O   0N   0G    200.00   2666.67 1500.00      1
-1.13171915E+02 6.53412263E-01-3.45511670E-04-1.10571941E-07 9.48079063E-11    2
-5.50969451E+04 5.23104380E+02-1.13171915E+02 6.53412263E-01-3.45511670E-04    3
-1.10571941E-07 9.48079063E-11-5.50969451E+04 5.23104380E+02                   4 
P-C21H42-P(L)           C  21H  42O   0N   0G    200.00   2666.67 2000.00      1
-6.21127121E+00 2.65693006E-01-1.76469253E-04 5.38084631E-08-4.97914431E-12    2
-6.04001877E+04 6.67888792E+01-6.21127121E+00 2.65693006E-01-1.76469253E-04    3
 5.38084631E-08-4.97914431E-12-6.04001877E+04 6.67888792E+01                   4 
P-C21H42-P              C  21H  42O   0N   0G    200.00   2666.67 2000.00      1
-6.21127121E+00 2.65693006E-01-1.76469253E-04 5.38084631E-08-4.97914431E-12    2
-6.04001877E+04 6.67888792E+01-6.21127121E+00 2.65693006E-01-1.76469253E-04    3
 5.38084631E-08-4.97914431E-12-6.04001877E+04 6.67888792E+01                   4 
P-C21H41-P(L)           C  21H  41O   0N   0G    200.00   2666.67 2000.00      1
-5.46400400E+00 2.57131899E-01-1.66097758E-04 4.73165237E-08-3.47124602E-12    2
-3.71527187E+04 6.56623199E+01-5.46400400E+00 2.57131899E-01-1.66097758E-04    3
 4.73165237E-08-3.47124602E-12-3.71527187E+04 6.56623199E+01                   4 
P-C21H41-P              C  21H  41O   0N   0G    200.00   2666.67 2000.00      1
-5.46400400E+00 2.57131899E-01-1.66097758E-04 4.73165237E-08-3.47124602E-12    2
-3.71527187E+04 6.56623199E+01-5.46400400E+00 2.57131899E-01-1.66097758E-04    3
 4.73165237E-08-3.47124602E-12-3.71527187E+04 6.56623199E+01                   4 
P-C21H43(L)             C  21H  43O   0N   0G    200.00   2666.67 2000.00      1
-2.48159576E+00 2.37364374E-01-1.09412876E-04 5.44453019E-10 8.36487890E-12    2
-6.32547376E+04 5.89440446E+01-2.48159576E+00 2.37364374E-01-1.09412876E-04    3
 5.44453019E-10 8.36487890E-12-6.32547376E+04 5.89440446E+01                   4 
P-C21H43                C  21H  43O   0N   0G    200.00   2666.67 2000.00      1
-2.48159576E+00 2.37364374E-01-1.09412876E-04 5.44453019E-10 8.36487890E-12    2
-6.32547376E+04 5.89440446E+01-2.48159576E+00 2.37364374E-01-1.09412876E-04    3
 5.44453019E-10 8.36487890E-12-6.32547376E+04 5.89440446E+01                   4 
P-C21H41(L)             C  21H  41O   0N   0G    200.00   2666.67 2000.00      1
-1.68362533E+00 2.27122585E-01-9.92721333E-05-4.73865918E-09 9.36400201E-12    2
-4.80529740E+04 5.57541013E+01-1.68362533E+00 2.27122585E-01-9.92721333E-05    3
-4.73865918E-09 9.36400201E-12-4.80529740E+04 5.57541013E+01                   4 
P-C21H41                C  21H  41O   0N   0G    200.00   2666.67 2000.00      1
-1.68362533E+00 2.27122585E-01-9.92721333E-05-4.73865918E-09 9.36400201E-12    2
-4.80529740E+04 5.57541013E+01-1.68362533E+00 2.27122585E-01-9.92721333E-05    3
-4.73865918E-09 9.36400201E-12-4.80529740E+04 5.57541013E+01                   4 
P-C21H42(L)             C  21H  42O   0N   0G    200.00   2666.67 2000.00      1
-1.73432854E+00 2.28803267E-01-9.90413806E-05-5.94748647E-09 9.87277719E-12    2
-4.00072687E+04 5.78174853E+01-1.73432854E+00 2.28803267E-01-9.90413806E-05    3
-5.94748647E-09 9.87277719E-12-4.00072687E+04 5.78174853E+01                   4 
P-C21H42                C  21H  42O   0N   0G    200.00   2666.67 2000.00      1
-1.73432854E+00 2.28803267E-01-9.90413806E-05-5.94748647E-09 9.87277719E-12    2
-4.00072687E+04 5.78174853E+01-1.73432854E+00 2.28803267E-01-9.90413806E-05    3
-5.94748647E-09 9.87277719E-12-4.00072687E+04 5.78174853E+01                   4 
P-C21H42_T(L)           C  21H  42O   0N   0G    200.00   2666.67 2000.00      1
-2.78788374E+00 2.36971231E-01-1.12112109E-04 2.34738966E-09 8.03796015E-12    2
-3.83849938E+04 6.13993420E+01-2.78788374E+00 2.36971231E-01-1.12112109E-04    3
 2.34738966E-09 8.03796015E-12-3.83849938E+04 6.13993420E+01                   4 
P-C21H42_T              C  21H  42O   0N   0G    200.00   2666.67 2000.00      1
-2.78788374E+00 2.36971231E-01-1.12112109E-04 2.34738966E-09 8.03796015E-12    2
-3.83849938E+04 6.13993420E+01-2.78788374E+00 2.36971231E-01-1.12112109E-04    3
 2.34738966E-09 8.03796015E-12-3.83849938E+04 6.13993420E+01                   4 
P-C21H40(L)             C  21H  40O   0N   0G    200.00   2666.67 2000.00      1
-9.36358120E-01 2.18561478E-01-8.89006381E-05-1.12305987E-08 1.08719003E-11    2
-2.48055050E+04 5.46275420E+01-9.36358120E-01 2.18561478E-01-8.89006381E-05    3
-1.12305987E-08 1.08719003E-11-2.48055050E+04 5.46275420E+01                   4 
P-C21H40                C  21H  40O   0N   0G    200.00   2666.67 2000.00      1
-9.36358120E-01 2.18561478E-01-8.89006381E-05-1.12305987E-08 1.08719003E-11    2
-2.48055050E+04 5.46275420E+01-9.36358120E-01 2.18561478E-01-8.89006381E-05    3
-1.12305987E-08 1.08719003E-11-2.48055050E+04 5.46275420E+01                   4 
P-C21H40_A(L)           C  21H  40O   0N   0G    200.00   2666.67 2000.00      1
-3.21931315E+00 2.29479620E-01-1.03567380E-04-2.28624350E-09 8.84427396E-12    2
-3.08195026E+04 6.14417502E+01-3.21931315E+00 2.29479620E-01-1.03567380E-04    3
-2.28624350E-09 8.84427396E-12-3.08195026E+04 6.14417502E+01                   4 
P-C21H40_A              C  21H  40O   0N   0G    200.00   2666.67 2000.00      1
-3.21931315E+00 2.29479620E-01-1.03567380E-04-2.28624350E-09 8.84427396E-12    2
-3.08195026E+04 6.14417502E+01-3.21931315E+00 2.29479620E-01-1.03567380E-04    3
-2.28624350E-09 8.84427396E-12-3.08195026E+04 6.14417502E+01                   4 
CH4(L)                  C   1H   4O   0N   0G    200.00   2666.67 2000.00      1
 2.45042366E+00 2.73922893E-03 1.04677362E-05-9.55460099E-09 2.50864251E-12    2
-9.87434812E+03 4.04168294E+00 2.45042366E+00 2.73922893E-03 1.04677362E-05    3
-9.55460099E-09 2.50864251E-12-9.87434812E+03 4.04168294E+00                   4 
CH4                     C   1H   4O   0N   0G    200.00   2666.67 2000.00      1
 2.45042366E+00 2.73922893E-03 1.04677362E-05-9.55460099E-09 2.50864251E-12    2
-9.87434812E+03 4.04168294E+00 2.45042366E+00 2.73922893E-03 1.04677362E-05    3
-9.55460099E-09 2.50864251E-12-9.87434812E+03 4.04168294E+00                   4 
C2H6(L)                 C   2H   6O   0N   0G    200.00   2666.67 2000.00      1
 1.24369753E+00 1.52254438E-02 5.38358055E-06-1.07318396E-08 3.38901814E-12    2
-1.10520938E+04 1.55386223E+01 1.24369753E+00 1.52254438E-02 5.38358055E-06    3
-1.07318396E-08 3.38901814E-12-1.10520938E+04 1.55386223E+01                   4 
C2H6                    C   2H   6O   0N   0G    200.00   2666.67 2000.00      1
 1.24369753E+00 1.52254438E-02 5.38358055E-06-1.07318396E-08 3.38901814E-12    2
-1.10520938E+04 1.55386223E+01 1.24369753E+00 1.52254438E-02 5.38358055E-06    3
-1.07318396E-08 3.38901814E-12-1.10520938E+04 1.55386223E+01                   4 
C3H8(L)                 C   3H   8O   0N   0G    200.00   2666.67  383.72      1
 2.21014366E+00 2.29597584E-02 1.66149173E-06-9.22785300E-09 3.04674627E-12    2
-1.41273475E+04 1.29665286E+01 8.21131826E+01-1.63320848E+00 1.30130076E-02    3
-4.32547041E-05 5.22800310E-08-2.04939106E+04-2.53658786E+02                   4 
C3H8                    C   3H   8O   0N   0G    200.00   2666.67  383.72      1
 2.21014366E+00 2.29597584E-02 1.66149173E-06-9.22785300E-09 3.04674627E-12    2
-1.41273475E+04 1.29665286E+01 2.21014366E+00 2.29597584E-02 1.66149173E-06    3
-9.22785300E-09 3.04674627E-12-1.41273475E+04 1.29665286E+01                   4 
NC4H10(L)               C   4H  10O   0N   0G    200.00   2666.67 2000.00      1
 2.22410321E-02 4.30169132E-02-1.45561272E-05-3.82978381E-09 2.53795072E-12    2
-1.67018918E+04 2.52228237E+01 2.22410321E-02 4.30169132E-02-1.45561272E-05    3
-3.82978381E-09 2.53795072E-12-1.67018918E+04 2.52228237E+01                   4 
NC4H10                  C   4H  10O   0N   0G    200.00   2666.67 2000.00      1
 2.22410321E-02 4.30169132E-02-1.45561272E-05-3.82978381E-09 2.53795072E-12    2
-1.67018918E+04 2.52228237E+01 2.22410321E-02 4.30169132E-02-1.45561272E-05    3
-3.82978381E-09 2.53795072E-12-1.67018918E+04 2.52228237E+01                   4 
NC5H12(L)               C   5H  12O   0N   0G    200.00   2666.67 2000.00      1
 1.56618244E+00 4.70700721E-02-1.05306138E-05-8.64002257E-09 3.83990017E-12    2
-1.98421312E+04 1.96624611E+01 1.56618244E+00 4.70700721E-02-1.05306138E-05    3
-8.64002257E-09 3.83990017E-12-1.98421312E+04 1.96624611E+01                   4 
NC5H12                  C   5H  12O   0N   0G    200.00   2666.67 2000.00      1
 1.56618244E+00 4.70700721E-02-1.05306138E-05-8.64002257E-09 3.83990017E-12    2
-1.98421312E+04 1.96624611E+01 1.56618244E+00 4.70700721E-02-1.05306138E-05    3
-8.64002257E-09 3.83990017E-12-1.98421312E+04 1.96624611E+01                   4 
C6H14(L)                C   6H  14O   0N   0G    200.00   2666.67  531.00      1
-1.19933007E+00 7.16390781E-02-3.76265549E-05 5.91017923E-09 9.46513728E-13    2
-2.23670069E+04 3.42701069E+01 3.44228608E+01-5.10656619E-01 3.70338777E-03    3
-9.86468403E-06 9.32840560E-09-2.84651140E+04-1.00139467E+02                   4 
C6H14                   C   6H  14O   0N   0G    200.00   2666.67  531.00      1
-1.19933007E+00 7.16390781E-02-3.76265549E-05 5.91017923E-09 9.46513728E-13    2
-2.23670069E+04 3.42701069E+01-1.19933007E+00 7.16390781E-02-3.76265549E-05    3
 5.91017923E-09 9.46513728E-13-2.23670069E+04 3.42701069E+01                   4 
NC7H16(L)               C   7H  16O   0N   0G    200.00   2666.67 2000.00      1
 3.44611334E-01 7.56922370E-02-3.36010415E-05 1.09994048E-09 2.24846317E-12    2
-2.55077498E+04 2.92132690E+01 3.44611334E-01 7.56922370E-02-3.36010415E-05    3
 1.09994048E-09 2.24846317E-12-2.55077498E+04 2.92132690E+01                   4 
NC7H16                  C   7H  16O   0N   0G    200.00   2666.67 2000.00      1
 3.44611334E-01 7.56922370E-02-3.36010415E-05 1.09994048E-09 2.24846317E-12    2
-2.55077498E+04 2.92132690E+01 3.44611334E-01 7.56922370E-02-3.36010415E-05    3
 1.09994048E-09 2.24846317E-12-2.55077498E+04 2.92132690E+01                   4 
C8H18(L)                C   8H  18O   0N   0G    200.00   2666.67  597.96      1
-1.84329130E+00 9.57493918E-02-4.98186604E-05 6.49800967E-09 1.73966762E-12    2
-2.80822941E+04 4.09660394E+01 2.77545761E+01-3.36027410E-01 2.55391156E-03    3
-6.35984413E-06 5.56527010E-09-3.57385421E+04-7.95419934E+01                   4 
C8H18                   C   8H  18O   0N   0G    200.00   2666.67  597.96      1
-1.84329130E+00 9.57493918E-02-4.98186604E-05 6.49800967E-09 1.73966762E-12    2
-2.80822941E+04 4.09660394E+01-1.84329130E+00 9.57493918E-02-4.98186604E-05    3
 6.49800967E-09 1.73966762E-12-2.80822941E+04 4.09660394E+01                   4 
C9H20(L)                C   9H  20O   0N   0G    200.00   2666.67  622.52      1
-1.11493646E+00 1.05997609E-01-5.86548154E-05 1.15991832E-08 5.77790747E-13    2
-3.11596056E+04 3.91982657E+01 2.59910579E+01-2.71332587E-01 2.16166185E-03    3
-5.25845698E-06 4.46789850E-09-3.91356912E+04-7.42557619E+01                   4 
C9H20                   C   9H  20O   0N   0G    200.00   2666.67  622.52      1
-1.11493646E+00 1.05997609E-01-5.86548154E-05 1.15991832E-08 5.77790747E-13    2
-3.11596056E+04 3.91982657E+01-1.11493646E+00 1.05997609E-01-5.86548154E-05    3
 1.15991832E-08 5.77790747E-13-3.11596056E+04 3.91982657E+01                   4 
NC10H22(L)              C  10H  22O   0N   0G    200.00   2666.67 2000.00      1
 5.57390063E-01 1.08372672E-01-4.93792231E-05 2.30782197E-09 3.00937486E-12    2
-3.42998729E+04 3.37173290E+01 5.57390063E-01 1.08372672E-01-4.93792231E-05    3
 2.30782197E-09 3.00937486E-12-3.42998729E+04 3.37173290E+01                   4 
NC10H22                 C  10H  22O   0N   0G    200.00   2666.67 2000.00      1
 5.57390063E-01 1.08372672E-01-4.93792231E-05 2.30782197E-09 3.00937486E-12    2
-3.42998729E+04 3.37173290E+01 5.57390063E-01 1.08372672E-01-4.93792231E-05    3
 2.30782197E-09 3.00937486E-12-3.42998729E+04 3.37173290E+01                   4 
C2H4(L)                 C   2H   4O   0N   0G    200.00   2666.67 2000.00      1
 2.28065172E+00 7.61918037E-03 7.84384313E-06-9.37688681E-09 2.64496553E-12    2
 5.33233108E+03 1.07398928E+01 2.28065172E+00 7.61918037E-03 7.84384313E-06    3
-9.37688681E-09 2.64496553E-12 5.33233108E+03 1.07398928E+01                   4 
C2H4                    C   2H   4O   0N   0G    200.00   2666.67 2000.00      1
 2.28065172E+00 7.61918037E-03 7.84384313E-06-9.37688681E-09 2.64496553E-12    2
 5.33233108E+03 1.07398928E+01 2.28065172E+00 7.61918037E-03 7.84384313E-06    3
-9.37688681E-09 2.64496553E-12 5.33233108E+03 1.07398928E+01                   4 
C3H6(L)                 C   3H   6O   0N   0G    200.00   2666.67  396.93      1
 1.34909870E+00 2.24424083E-02-3.95215969E-06-4.77584462E-09 2.00498837E-12    2
 1.24462831E+03 1.77062213E+01 1.26065807E+02-2.49985549E+00 1.95021774E-02    3
-6.36463048E-05 7.54948894E-08-1.00084834E+04-4.05813524E+02                   4 
C3H6                    C   3H   6O   0N   0G    200.00   2666.67  396.93      1
 1.34909870E+00 2.24424083E-02-3.95215969E-06-4.77584462E-09 2.00498837E-12    2
 1.24462831E+03 1.77062213E+01 1.34909870E+00 2.24424083E-02-3.95215969E-06    3
-4.77584462E-09 2.00498837E-12 1.24462831E+03 1.77062213E+01                   4 
C4H8-1(L)               C   4H   8O   0N   0G    200.00   2666.67 2000.00      1
 6.55636984E-01 3.47517332E-02-1.06340964E-05-3.77198938E-09 2.18461623E-12    2
-1.49610228E+03 2.33647051E+01 6.55636984E-01 3.47517332E-02-1.06340964E-05    3
-3.77198938E-09 2.18461623E-12-1.49610228E+03 2.33647051E+01                   4 
C4H8-1                  C   4H   8O   0N   0G    200.00   2666.67 2000.00      1
 6.55636984E-01 3.47517332E-02-1.06340964E-05-3.77198938E-09 2.18461623E-12    2
-1.49610228E+03 2.33647051E+01 6.55636984E-01 3.47517332E-02-1.06340964E-05    3
-3.77198938E-09 2.18461623E-12-1.49610228E+03 2.33647051E+01                   4 
NC5H10(L)               C   5H  10O   0N   0G    200.00   2666.67 2000.00      1
 9.43114166E-01 4.48695146E-02-1.41609191E-05-4.94729382E-09 2.87737770E-12    2
-4.46881253E+03 2.34644403E+01 9.43114166E-01 4.48695146E-02-1.41609191E-05    3
-4.94729382E-09 2.87737770E-12-4.46881253E+03 2.34644403E+01                   4 
NC5H10                  C   5H  10O   0N   0G    200.00   2666.67 2000.00      1
 9.43114166E-01 4.48695146E-02-1.41609191E-05-4.94729382E-09 2.87737770E-12    2
-4.46881253E+03 2.34644403E+01 9.43114166E-01 4.48695146E-02-1.41609191E-05    3
-4.94729382E-09 2.87737770E-12-4.46881253E+03 2.34644403E+01                   4 
NC6H12(L)               C   6H  12O   0N   0G    200.00   2666.67 2000.00      1
-5.65819509E-01 6.25432026E-02-3.05738041E-05 3.13006637E-09 1.33354882E-12    2
-7.14590026E+03 3.25453819E+01-5.65819509E-01 6.25432026E-02-3.05738041E-05    3
 3.13006637E-09 1.33354882E-12-7.14590026E+03 3.25453819E+01                   4 
NC6H12                  C   6H  12O   0N   0G    200.00   2666.67 2000.00      1
-5.65819509E-01 6.25432026E-02-3.05738041E-05 3.13006637E-09 1.33354882E-12    2
-7.14590026E+03 3.25453819E+01-5.65819509E-01 6.25432026E-02-3.05738041E-05    3
 3.13006637E-09 1.33354882E-12-7.14590026E+03 3.25453819E+01                   4 
NC7H14(L)               C   7H  14O   0N   0G    200.00   2666.67 2000.00      1
 8.68415714E-01 6.74321680E-02-2.64122780E-05-2.56410789E-09 2.94552792E-12    2
-1.02882253E+04 2.78687651E+01 8.68415714E-01 6.74321680E-02-2.64122780E-05    3
-2.56410789E-09 2.94552792E-12-1.02882253E+04 2.78687651E+01                   4 
NC7H14                  C   7H  14O   0N   0G    200.00   2666.67 2000.00      1
 8.68415714E-01 6.74321680E-02-2.64122780E-05-2.56410789E-09 2.94552792E-12    2
-1.02882253E+04 2.78687651E+01 8.68415714E-01 6.74321680E-02-2.64122780E-05    3
-2.56410789E-09 2.94552792E-12-1.02882253E+04 2.78687651E+01                   4 
C8H16(L)                C   8H  16O   0N   0G    200.00   2666.67  604.29      1
-1.44798665E+00 8.99981148E-02-5.10106957E-05 1.01529911E-08 5.66728115E-13    2
-1.28790659E+04 3.99122408E+01 3.22284640E+01-3.94873968E-01 2.85266940E-03    3
-7.03021934E-06 6.10033413E-09-2.18862939E+04-9.82324217E+01                   4 
C8H16                   C   8H  16O   0N   0G    200.00   2666.67  604.29      1
-1.44798665E+00 8.99981148E-02-5.10106957E-05 1.01529911E-08 5.66728115E-13    2
-1.28790659E+04 3.99122408E+01-1.44798665E+00 8.99981148E-02-5.10106957E-05    3
 1.01529911E-08 5.66728115E-13-1.28790659E+04 3.99122408E+01                   4 
C9H18(L)                C   9H  18O   0N   0G    200.00   2666.67  631.78      1
-3.53155390E-01 9.60543329E-02-4.94827057E-05 7.17585516E-09 1.35409092E-12    2
-1.59538439E+04 3.69160483E+01 3.03855183E+01-3.27060319E-01 2.42592828E-03    3
-5.82736718E-06 4.91179350E-09-2.54736850E+04-9.27397290E+01                   4 
C9H18                   C   9H  18O   0N   0G    200.00   2666.67  631.78      1
-3.53155390E-01 9.60543329E-02-4.94827057E-05 7.17585516E-09 1.35409092E-12    2
-1.59538439E+04 3.69160483E+01-3.53155390E-01 9.60543329E-02-4.94827057E-05    3
 7.17585516E-09 1.35409092E-12-1.59538439E+04 3.69160483E+01                   4 
NC10H20(L)              C  10H  20O   0N   0G    200.00   2666.67 2000.00      1
-1.65117677E+00 1.15359258E-01-6.98685680E-05 1.74793910E-08-5.26881204E-13    2
-1.87356562E+04 4.39623500E+01-1.65117677E+00 1.15359258E-01-6.98685680E-05    3
 1.74793910E-08-5.26881204E-13-1.87356562E+04 4.39623500E+01                   4 
NC10H20                 C  10H  20O   0N   0G    200.00   2666.67 2000.00      1
-1.65117677E+00 1.15359258E-01-6.98685680E-05 1.74793910E-08-5.26881204E-13    2
-1.87356562E+04 4.39623500E+01-1.65117677E+00 1.15359258E-01-6.98685680E-05    3
 1.74793910E-08-5.26881204E-13-1.87356562E+04 4.39623500E+01                   4 
C4H6(L)                 C   4H   6O   0N   0G    200.00   2666.67  468.11      1
-4.06409399E-01 4.18889002E-02-3.14134416E-05 1.12768579E-08-1.30845977E-12    2
 1.17561262E+04 2.45375059E+01 9.59161751E+01-1.68499540E+00 1.20732065E-02    3
-3.52575961E-05 3.70957952E-08-1.40715257E+03-3.24929514E+02                   4 
C4H6                    C   4H   6O   0N   0G    200.00   2666.67  468.11      1
-4.06409399E-01 4.18889002E-02-3.14134416E-05 1.12768579E-08-1.30845977E-12    2
 1.17561262E+04 2.45375059E+01-4.06409399E-01 4.18889002E-02-3.14134416E-05    3
 1.12768579E-08-1.30845977E-12 1.17561262E+04 2.45375059E+01                   4 
LC5H8(L)                C   5H   8O   0N   0G    200.00   2666.67 2000.00      1
 1.33853343E+00 3.82875420E-02-1.22222345E-05-4.13021975E-09 2.44480778E-12    2
 1.07497328E+04 2.10334611E+01 1.33853343E+00 3.82875420E-02-1.22222345E-05    3
-4.13021975E-09 2.44480778E-12 1.07497328E+04 2.10334611E+01                   4 
LC5H8                   C   5H   8O   0N   0G    200.00   2666.67 2000.00      1
 1.33853343E+00 3.82875420E-02-1.22222345E-05-4.13021975E-09 2.44480778E-12    2
 1.07497328E+04 2.10334611E+01 1.33853343E+00 3.82875420E-02-1.22222345E-05    3
-4.13021975E-09 2.44480778E-12 1.07497328E+04 2.10334611E+01                   4 
DIALLYL(L)              C   6H  10O   0N   0G    200.00   2666.67 2000.00      1
-4.21297400E-02 5.51138291E-02-2.65157605E-05 2.30392530E-09 1.29024398E-12    2
 8.05730007E+03 2.95569104E+01-4.21297400E-02 5.51138291E-02-2.65157605E-05    3
 2.30392530E-09 1.29024398E-12 8.05730007E+03 2.95569104E+01                   4 
DIALLYL                 C   6H  10O   0N   0G    200.00   2666.67 2000.00      1
-4.21297400E-02 5.51138291E-02-2.65157605E-05 2.30392530E-09 1.29024398E-12    2
 8.05730007E+03 2.95569104E+01-4.21297400E-02 5.51138291E-02-2.65157605E-05    3
 2.30392530E-09 1.29024398E-12 8.05730007E+03 2.95569104E+01                   4 
C7H12(L)                C   7H  12O   0N   0G    200.00   2666.67  584.09      1
 1.16962322E-01 6.69097069E-02-3.52926621E-05 5.60974330E-09 8.53370779E-13    2
 5.08411417E+03 3.05842690E+01 4.60577072E+01-6.19789434E-01 4.16014353E-03    3
-1.04157017E-05 9.25669467E-09-5.90048038E+03-1.53601832E+02                   4 
C7H12                   C   7H  12O   0N   0G    200.00   2666.67  584.09      1
 1.16962322E-01 6.69097069E-02-3.52926621E-05 5.60974330E-09 8.53370779E-13    2
 5.08411417E+03 3.05842690E+01 1.16962322E-01 6.69097069E-02-3.52926621E-05    3
 5.60974330E-09 8.53370779E-13 5.08411417E+03 3.05842690E+01                   4 
C8H14(L)                C   8H  14O   0N   0G    200.00   2666.67  613.67      1
 1.78928885E+00 6.92847694E-02-2.60170699E-05-3.68161790E-09 3.28495489E-12    2
 1.94384687E+03 2.45998076E+01 4.17643017E+01-4.98766365E-01 3.35245889E-03    3
-8.12729830E-06 6.98166521E-09-9.32825020E+03-1.41170583E+02                   4 
C8H14                   C   8H  14O   0N   0G    200.00   2666.67  613.67      1
 1.78928885E+00 6.92847694E-02-2.60170699E-05-3.68161790E-09 3.28495489E-12    2
 1.94384687E+03 2.45998076E+01 1.78928885E+00 6.92847694E-02-2.60170699E-05    3
-3.68161790E-09 3.28495489E-12 1.94384687E+03 2.45998076E+01                   4 
C9H16(L)                C   9H  16O   0N   0G    200.00   2666.67  638.27      1
-2.56160761E+00 1.02210224E-01-6.68413305E-05 1.95095169E-08-1.44179556E-12    2
-3.74310136E+02 4.62874135E+01 3.35346062E+01-3.88184460E-01 2.78311515E-03    3
-6.64358333E-06 5.55988263E-09-1.19042832E+04-1.07583544E+02                   4 
C9H16                   C   9H  16O   0N   0G    200.00   2666.67  638.27      1
-2.56160761E+00 1.02210224E-01-6.68413305E-05 1.95095169E-08-1.44179556E-12    2
-3.74310136E+02 4.62874135E+01-2.56160761E+00 1.02210224E-01-6.68413305E-05    3
 1.95095169E-08-1.44179556E-12-3.74310136E+02 4.62874135E+01                   4 
C10H18(L)               C  10H  18O   0N   0G    200.00   2666.67  660.20      1
 5.67832354E-01 9.70762388E-02-4.59567776E-05 3.22043784E-09 2.43388748E-12    2
-3.70544759E+03 3.42840090E+01 3.41231491E+01-3.41257589E-01 2.45183348E-03    3
-5.69828951E-06 4.64576111E-09-1.56052515E+04-1.11738273E+02                   4 
C10H18                  C  10H  18O   0N   0G    200.00   2666.67  660.20      1
 5.67832354E-01 9.70762388E-02-4.59567776E-05 3.22043784E-09 2.43388748E-12    2
-3.70544759E+03 3.42840090E+01 5.67832354E-01 9.70762388E-02-4.59567776E-05    3
 3.22043784E-09 2.43388748E-12-3.70544759E+03 3.42840090E+01                   4 
C15H32(L)               C  15H  32O   0N   0G    200.00   2666.67  726.01      1
-3.18365891E+00 1.84091232E-01-1.12775221E-04 2.92533766E-08-1.31410167E-12    2
-4.83976052E+04 5.94951153E+01 2.92018509E+01-2.16334898E-01 1.98951082E-03    3
-4.35598545E-06 3.23241832E-09-6.04161467E+04-8.20417437E+01                   4 
C15H32                  C  15H  32O   0N   0G    200.00   2666.67  726.01      1
-3.18365891E+00 1.84091232E-01-1.12775221E-04 2.92533766E-08-1.31410167E-12    2
-4.83976052E+04 5.94951153E+01-3.18365891E+00 1.84091232E-01-1.12775221E-04    3
 2.92533766E-08-1.31410167E-12-4.83976052E+04 5.94951153E+01                   4 
C15H30(L)               C  15H  30O   0N   0G    200.00   2666.67  729.91      1
-2.55014835E+00 1.74995356E-01-1.05722470E-04 2.64732637E-08-9.27066581E-13    2
-3.31764986E+04 5.77703902E+01 3.26801516E+01-2.57780825E-01 2.15851770E-03    3
-4.67691095E-06 3.45254557E-09-4.64553105E+04-9.67871461E+01                   4 
C15H30                  C  15H  30O   0N   0G    200.00   2666.67  729.91      1
-2.55014835E+00 1.74995356E-01-1.05722470E-04 2.64732637E-08-9.27066581E-13    2
-3.31764986E+04 5.77703902E+01-2.55014835E+00 1.74995356E-01-1.05722470E-04    3
 2.64732637E-08-9.27066581E-13-3.31764986E+04 5.77703902E+01                   4 
C15H28(L)               C  15H  28O   0N   0G    200.00   2666.67  739.51      1
-1.78836728E+00 1.65052080E-01-9.65503604E-05 2.20499357E-08-1.50766407E-13    2
-1.79707370E+04 5.39775988E+01 3.76838189E+01-3.15912618E-01 2.40894527E-03    3
-5.15550878E-06 3.78122466E-09-3.35547979E+04-1.20245768E+02                   4 
C15H28                  C  15H  28O   0N   0G    200.00   2666.67  739.51      1
-1.78836728E+00 1.65052080E-01-9.65503604E-05 2.20499357E-08-1.50766407E-13    2
-1.79707370E+04 5.39775988E+01-1.78836728E+00 1.65052080E-01-9.65503604E-05    3
 2.20499357E-08-1.50766407E-13-1.79707370E+04 5.39775988E+01                   4 
C21H44(L)               C  21H  44O   0N   0G    200.00   2666.67  797.04      1
-5.12388969E+00 2.59386364E-01-1.60289113E-04 4.19643560E-08-2.04423456E-12    2
-6.55979239E+04 7.96426558E+01 2.67210689E+01-9.64879119E-02 1.61148898E-03    3
-3.42515802E-06 2.39218062E-09-8.12058107E+04-6.79424494E+01                   4 
C21H44                  C  21H  44O   0N   0G    200.00   2666.67  797.04      1
-5.12388969E+00 2.59386364E-01-1.60289113E-04 4.19643560E-08-2.04423456E-12    2
-6.55979239E+04 7.96426558E+01-5.12388969E+00 2.59386364E-01-1.60289113E-04    3
 4.19643560E-08-2.04423456E-12-6.55979239E+04 7.96426558E+01                   4 
C21H42(L)               C  21H  42O   0N   0G    200.00   2666.67  800.58      1
-4.49049374E+00 2.51121184E-01-1.56367082E-04 4.20221504E-08-2.39756905E-12    2
-5.03926379E+04 7.77845372E+01 3.07158823E+01-1.39828635E-01 1.78371132E-03    3
-3.73957041E-06 2.59848001E-09-6.78376076E+04-8.58824972E+01                   4 
C21H42                  C  21H  42O   0N   0G    200.00   2666.67  800.58      1
-4.49049374E+00 2.51121184E-01-1.56367082E-04 4.20221504E-08-2.39756905E-12    2
-5.03926379E+04 7.77845372E+01-4.49049374E+00 2.51121184E-01-1.56367082E-04    3
 4.20221504E-08-2.39756905E-12-5.03926379E+04 7.77845372E+01                   4 
C21H40(L)               C  21H  40O   0N   0G    200.00   2666.67  803.32      1
-5.11356201E+00 2.48920626E-01-1.59997387E-04 4.57148792E-08-3.36009152E-12    2
-3.50193192E+04 8.00759423E+01 3.22140917E+01-1.63622347E-01 1.88226063E-03    3
-3.92338520E-06 2.71826816E-09-5.36755307E+04-9.38728231E+01                   4 
C21H40                  C  21H  40O   0N   0G    200.00   2666.67  803.32      1
-5.11356201E+00 2.48920626E-01-1.59997387E-04 4.57148792E-08-3.36009152E-12    2
-3.50193192E+04 8.00759423E+01-5.11356201E+00 2.48920626E-01-1.59997387E-04    3
 4.57148792E-08-3.36009152E-12-3.50193192E+04 8.00759423E+01                   4 
C30H62(L)               C  30H  62O   0N   0G    200.00   2666.67  865.72      1
-9.34562165E+00 3.80094683E-01-2.46145229E-04 7.11216473E-08-5.42717154E-12    2
-9.12436156E+04 1.15582986E+02 2.55358334E+01 2.73078984E-02 1.42361772E-03    3
-3.00286062E-06 1.98838087E-09-1.12616523E+05-5.55230923E+01                   4 
C30H62                  C  30H  62O   0N   0G    200.00   2666.67  865.72      1
-9.34562165E+00 3.80094683E-01-2.46145229E-04 7.11216473E-08-5.42717154E-12    2
-9.12436156E+04 1.15582986E+02-9.34562165E+00 3.80094683E-01-2.46145229E-04    3
 7.11216473E-08-5.42717154E-12-9.12436156E+04 1.15582986E+02                   4 
C30H60(L)               C  30H  60O   0N   0G    200.00   2666.67  867.47      1
-7.12672714E+00 3.62642359E-01-2.25364159E-04 5.97006015E-08-3.20677244E-12    2
-7.62292277E+04 1.06274776E+02 3.05558700E+01-1.72970911E-02 1.57015536E-03    3
-3.23968515E-06 2.13274283E-09-9.94229723E+04-7.87835134E+01                   4 
C30H60                  C  30H  60O   0N   0G    200.00   2666.67  867.47      1
-7.12672714E+00 3.62642359E-01-2.25364159E-04 5.97006015E-08-3.20677244E-12    2
-7.62292277E+04 1.06274776E+02-7.12672714E+00 3.62642359E-01-2.25364159E-04    3
 5.97006015E-08-3.20677244E-12-7.62292277E+04 1.06274776E+02                   4 
C30H58(L)               C  30H  58O   0N   0G    200.00   2666.67  870.14      1
-9.57338527E+00 3.72142849E-01-2.50967570E-04 7.84693575E-08-7.56263352E-12    2
-6.06670687E+04 1.16820592E+02 3.07206463E+01-3.22663121E-02 1.65582132E-03    3
-3.41569479E-06 2.24806787E-09-8.56412792E+04-8.14075126E+01                   4 
C30H58                  C  30H  58O   0N   0G    200.00   2666.67  870.14      1
-9.57338527E+00 3.72142849E-01-2.50967570E-04 7.84693575E-08-7.56263352E-12    2
-6.06670687E+04 1.16820592E+02-9.57338527E+00 3.72142849E-01-2.50967570E-04    3
 7.84693575E-08-7.56263352E-12-6.06670687E+04 1.16820592E+02                   4 
C39H80(L)               C  39H  80O   0N   0G    200.00   2666.67  911.16      1
-9.87283705E+00 4.85037789E-01-3.09684934E-04 8.74671269E-08-6.24368802E-12    2
-1.17465084E+05 1.33782002E+02 2.97287397E+01 1.10337835E-01 1.40614468E-03    3
-2.94764317E-06 1.88336808E-09-1.45014876E+05-6.69967722E+01                   4 