THERMO
   300.0   1000.0   3000.0


N2                G 8/02N   2    0    0    0G   200.000  6000.00  1000.00      1
 2.95257637E+00 1.39690040E-03-4.92631603E-07 7.86010195E-11-4.60755204E-15    2
-9.23948688E+02 5.87188762E+00 3.53100528E+00-1.23660988E-04-5.02999433E-07    3
 2.43530612E-09-1.40881235E-12-1.04697628E+03 2.96747038E+00 0.00000000E+00    4

N2(L)             G 8/02N   2    0    0    0G   200.000  6000.00  1000.00      1
 2.95257637E+00 1.39690040E-03-4.92631603E-07 7.86010195E-11-4.60755204E-15    2
-9.23948688E+02 5.87188762E+00 3.53100528E+00-1.23660988E-04-5.02999433E-07    3
 2.43530612E-09-1.40881235E-12-1.04697628E+03 2.96747038E+00 0.00000000E+00    4

HE                      HE  1               G    200.00   3500.00  850.00      1
 2.50020615e+00-5.42576298e-07 4.63926302e-10-1.57302170e-13 1.82971406e-17    2
-7.45426807e+02 9.27648988e-01 2.49964853e+00 2.08151569e-06-4.16682427e-09    3
 3.47465907e-12-1.04992675e-15-7.45332012e+02 9.30248556e-01                   4

P-C21H42-P_S(L)         C  21H  42O   0N   0G    200.00   2666.67 1500.00      1
-1.13171915E+02 6.53412263E-01-3.45511670E-04-1.10571941E-07 9.48079063E-11    2
-5.50969451E+04 5.23104380E+02-1.13171915E+02 6.53412263E-01-3.45511670E-04    3
-1.10571941E-07 9.48079063E-11-5.50969451E+04 5.23104380E+02                   4 
P-C21H42-P_S            C  21H  42O   0N   0G    200.00   2666.67 1500.00      1
-1.13171915E+02 6.53412263E-01-3.45511670E-04-1.10571941E-07 9.48079063E-11    2
-5.50969451E+04 5.23104380E+02-1.13171915E+02 6.53412263E-01-3.45511670E-04    3
-1.10571941E-07 9.48079063E-11-5.50969451E+04 5.23104380E+02                   4 
P-C21H42-P(L)           C  21H  42O   0N   0G    200.00   2666.67 2000.00      1
-6.21127121E+00 2.65693006E-01-1.76469253E-04 5.38084631E-08-4.97914431E-12    2
-6.04001877E+04 6.67888792E+01-6.21127121E+00 2.65693006E-01-1.76469253E-04    3
 5.38084631E-08-4.97914431E-12-6.04001877E+04 6.67888792E+01                   4 
P-C21H42-P              C  21H  42O   0N   0G    200.00   2666.67 2000.00      1
-6.21127121E+00 2.65693006E-01-1.76469253E-04 5.38084631E-08-4.97914431E-12    2
-6.04001877E+04 6.67888792E+01-6.21127121E+00 2.65693006E-01-1.76469253E-04    3
 5.38084631E-08-4.97914431E-12-6.04001877E+04 6.67888792E+01                   4 
P-C21H41-P(L)           C  21H  41O   0N   0G    200.00   2666.67 2000.00      1
-5.46400400E+00 2.57131899E-01-1.66097758E-04 4.73165237E-08-3.47124602E-12    2
-3.71527187E+04 6.56623199E+01-5.46400400E+00 2.57131899E-01-1.66097758E-04    3
 4.73165237E-08-3.47124602E-12-3.71527187E+04 6.56623199E+01                   4 
P-C21H41-P              C  21H  41O   0N   0G    200.00   2666.67 2000.00      1
-5.46400400E+00 2.57131899E-01-1.66097758E-04 4.73165237E-08-3.47124602E-12    2
-3.71527187E+04 6.56623199E+01-5.46400400E+00 2.57131899E-01-1.66097758E-04    3
 4.73165237E-08-3.47124602E-12-3.71527187E+04 6.56623199E+01                   4 
P-C21H43(L)             C  21H  43O   0N   0G    200.00   2666.67 2000.00      1
-2.48159576E+00 2.37364374E-01-1.09412876E-04 5.44453019E-10 8.36487890E-12    2
-6.32547376E+04 5.89440446E+01-2.48159576E+00 2.37364374E-01-1.09412876E-04    3
 5.44453019E-10 8.36487890E-12-6.32547376E+04 5.89440446E+01                   4 
P-C21H43                C  21H  43O   0N   0G    200.00   2666.67 2000.00      1
-2.48159576E+00 2.37364374E-01-1.09412876E-04 5.44453019E-10 8.36487890E-12    2
-6.32547376E+04 5.89440446E+01-2.48159576E+00 2.37364374E-01-1.09412876E-04    3
 5.44453019E-10 8.36487890E-12-6.32547376E+04 5.89440446E+01                   4 
P-C21H41(L)             C  21H  41O   0N   0G    200.00   2666.67 2000.00      1
-1.68362533E+00 2.27122585E-01-9.92721333E-05-4.73865918E-09 9.36400201E-12    2
-4.80529740E+04 5.57541013E+01-1.68362533E+00 2.27122585E-01-9.92721333E-05    3
-4.73865918E-09 9.36400201E-12-4.80529740E+04 5.57541013E+01                   4 
P-C21H41                C  21H  41O   0N   0G    200.00   2666.67 2000.00      1
-1.68362533E+00 2.27122585E-01-9.92721333E-05-4.73865918E-09 9.36400201E-12    2
-4.80529740E+04 5.57541013E+01-1.68362533E+00 2.27122585E-01-9.92721333E-05    3
-4.73865918E-09 9.36400201E-12-4.80529740E+04 5.57541013E+01                   4 
P-C21H42(L)             C  21H  42O   0N   0G    200.00   2666.67 2000.00      1
-1.73432854E+00 2.28803267E-01-9.90413806E-05-5.94748647E-09 9.87277719E-12    2
-4.00072687E+04 5.78174853E+01-1.73432854E+00 2.28803267E-01-9.90413806E-05    3
-5.94748647E-09 9.87277719E-12-4.00072687E+04 5.78174853E+01                   4 
P-C21H42                C  21H  42O   0N   0G    200.00   2666.67 2000.00      1
-1.73432854E+00 2.28803267E-01-9.90413806E-05-5.94748647E-09 9.87277719E-12    2
-4.00072687E+04 5.78174853E+01-1.73432854E+00 2.28803267E-01-9.90413806E-05    3
-5.94748647E-09 9.87277719E-12-4.00072687E+04 5.78174853E+01                   4 
P-C21H40(L)             C  21H  40O   0N   0G    200.00   2666.67 2000.00      1
-9.36358120E-01 2.18561478E-01-8.89006381E-05-1.12305987E-08 1.08719003E-11    2
-2.48055050E+04 5.46275420E+01-9.36358120E-01 2.18561478E-01-8.89006381E-05    3
-1.12305987E-08 1.08719003E-11-2.48055050E+04 5.46275420E+01                   4 
P-C21H40                C  21H  40O   0N   0G    200.00   2666.67 2000.00      1
-9.36358120E-01 2.18561478E-01-8.89006381E-05-1.12305987E-08 1.08719003E-11    2
-2.48055050E+04 5.46275420E+01-9.36358120E-01 2.18561478E-01-8.89006381E-05    3
-1.12305987E-08 1.08719003E-11-2.48055050E+04 5.46275420E+01                   4 
CH4(L)                  C   1H   4O   0N   0G    200.00   2666.67 2000.00      1
 2.45042366E+00 2.73922893E-03 1.04677362E-05-9.55460099E-09 2.50864251E-12    2
-9.87434812E+03 4.04168294E+00 2.45042366E+00 2.73922893E-03 1.04677362E-05    3
-9.55460099E-09 2.50864251E-12-9.87434812E+03 4.04168294E+00                   4 
CH4                     C   1H   4O   0N   0G    200.00   2666.67 2000.00      1
 2.45042366E+00 2.73922893E-03 1.04677362E-05-9.55460099E-09 2.50864251E-12    2
-9.87434812E+03 4.04168294E+00 2.45042366E+00 2.73922893E-03 1.04677362E-05    3
-9.55460099E-09 2.50864251E-12-9.87434812E+03 4.04168294E+00                   4 
C2H6(L)                 C   2H   6O   0N   0G    200.00   2666.67 2000.00      1
 1.24369753E+00 1.52254438E-02 5.38358055E-06-1.07318396E-08 3.38901814E-12    2
-1.10520938E+04 1.55386223E+01 1.24369753E+00 1.52254438E-02 5.38358055E-06    3
-1.07318396E-08 3.38901814E-12-1.10520938E+04 1.55386223E+01                   4 
C2H6                    C   2H   6O   0N   0G    200.00   2666.67 2000.00      1
 1.24369753E+00 1.52254438E-02 5.38358055E-06-1.07318396E-08 3.38901814E-12    2
-1.10520938E+04 1.55386223E+01 1.24369753E+00 1.52254438E-02 5.38358055E-06    3
-1.07318396E-08 3.38901814E-12-1.10520938E+04 1.55386223E+01                   4 
C3H8(L)                 C   3H   8O   0N   0G    200.00   2666.67  383.72      1
 2.21014366E+00 2.29597584E-02 1.66149173E-06-9.22785300E-09 3.04674627E-12    2
-1.41273475E+04 1.29665286E+01 8.21131826E+01-1.63320848E+00 1.30130076E-02    3
-4.32547041E-05 5.22800310E-08-2.04939106E+04-2.53658786E+02                   4 
C3H8                    C   3H   8O   0N   0G    200.00   2666.67  383.72      1
 2.21014366E+00 2.29597584E-02 1.66149173E-06-9.22785300E-09 3.04674627E-12    2
-1.41273475E+04 1.29665286E+01 2.21014366E+00 2.29597584E-02 1.66149173E-06    3
-9.22785300E-09 3.04674627E-12-1.41273475E+04 1.29665286E+01                   4 
NC4H10(L)               C   4H  10O   0N   0G    200.00   2666.67 2000.00      1
 2.22410321E-02 4.30169132E-02-1.45561272E-05-3.82978381E-09 2.53795072E-12    2
-1.67018918E+04 2.52228237E+01 2.22410321E-02 4.30169132E-02-1.45561272E-05    3
-3.82978381E-09 2.53795072E-12-1.67018918E+04 2.52228237E+01                   4 
NC4H10                  C   4H  10O   0N   0G    200.00   2666.67 2000.00      1
 2.22410321E-02 4.30169132E-02-1.45561272E-05-3.82978381E-09 2.53795072E-12    2
-1.67018918E+04 2.52228237E+01 2.22410321E-02 4.30169132E-02-1.45561272E-05    3
-3.82978381E-09 2.53795072E-12-1.67018918E+04 2.52228237E+01                   4 
NC5H12(L)               C   5H  12O   0N   0G    200.00   2666.67 2000.00      1
 1.56618244E+00 4.70700721E-02-1.05306138E-05-8.64002257E-09 3.83990017E-12    2
-1.98421312E+04 1.96624611E+01 1.56618244E+00 4.70700721E-02-1.05306138E-05    3
-8.64002257E-09 3.83990017E-12-1.98421312E+04 1.96624611E+01                   4 
NC5H12                  C   5H  12O   0N   0G    200.00   2666.67 2000.00      1
 1.56618244E+00 4.70700721E-02-1.05306138E-05-8.64002257E-09 3.83990017E-12    2
-1.98421312E+04 1.96624611E+01 1.56618244E+00 4.70700721E-02-1.05306138E-05    3
-8.64002257E-09 3.83990017E-12-1.98421312E+04 1.96624611E+01                   4 
C2H4(L)                 C   2H   4O   0N   0G    200.00   2666.67 2000.00      1
 2.28065172E+00 7.61918037E-03 7.84384313E-06-9.37688681E-09 2.64496553E-12    2
 5.33233108E+03 1.07398928E+01 2.28065172E+00 7.61918037E-03 7.84384313E-06    3
-9.37688681E-09 2.64496553E-12 5.33233108E+03 1.07398928E+01                   4 
C2H4                    C   2H   4O   0N   0G    200.00   2666.67 2000.00      1
 2.28065172E+00 7.61918037E-03 7.84384313E-06-9.37688681E-09 2.64496553E-12    2
 5.33233108E+03 1.07398928E+01 2.28065172E+00 7.61918037E-03 7.84384313E-06    3
-9.37688681E-09 2.64496553E-12 5.33233108E+03 1.07398928E+01                   4 
C3H6(L)                 C   3H   6O   0N   0G    200.00   2666.67  396.93      1
 1.34909870E+00 2.24424083E-02-3.95215969E-06-4.77584462E-09 2.00498837E-12    2
 1.24462831E+03 1.77062213E+01 1.26065807E+02-2.49985549E+00 1.95021774E-02    3
-6.36463048E-05 7.54948894E-08-1.00084834E+04-4.05813524E+02                   4 
C3H6                    C   3H   6O   0N   0G    200.00   2666.67  396.93      1
 1.34909870E+00 2.24424083E-02-3.95215969E-06-4.77584462E-09 2.00498837E-12    2
 1.24462831E+03 1.77062213E+01 1.34909870E+00 2.24424083E-02-3.95215969E-06    3
-4.77584462E-09 2.00498837E-12 1.24462831E+03 1.77062213E+01                   4 
C4H8-1(L)               C   4H   8O   0N   0G    200.00   2666.67 2000.00      1
 6.55636984E-01 3.47517332E-02-1.06340964E-05-3.77198938E-09 2.18461623E-12    2
-1.49610228E+03 2.33647051E+01 6.55636984E-01 3.47517332E-02-1.06340964E-05    3
-3.77198938E-09 2.18461623E-12-1.49610228E+03 2.33647051E+01                   4 
C4H8-1                  C   4H   8O   0N   0G    200.00   2666.67 2000.00      1
 6.55636984E-01 3.47517332E-02-1.06340964E-05-3.77198938E-09 2.18461623E-12    2
-1.49610228E+03 2.33647051E+01 6.55636984E-01 3.47517332E-02-1.06340964E-05    3
-3.77198938E-09 2.18461623E-12-1.49610228E+03 2.33647051E+01                   4 
NC5H10(L)               C   5H  10O   0N   0G    200.00   2666.67 2000.00      1
 9.43114166E-01 4.48695146E-02-1.41609191E-05-4.94729382E-09 2.87737770E-12    2
-4.46881253E+03 2.34644403E+01 9.43114166E-01 4.48695146E-02-1.41609191E-05    3
-4.94729382E-09 2.87737770E-12-4.46881253E+03 2.34644403E+01                   4 
NC5H10                  C   5H  10O   0N   0G    200.00   2666.67 2000.00      1
 9.43114166E-01 4.48695146E-02-1.41609191E-05-4.94729382E-09 2.87737770E-12    2
-4.46881253E+03 2.34644403E+01 9.43114166E-01 4.48695146E-02-1.41609191E-05    3
-4.94729382E-09 2.87737770E-12-4.46881253E+03 2.34644403E+01                   4 
C4H6(L)                 C   4H   6O   0N   0G    200.00   2666.67  468.11      1
-4.06409399E-01 4.18889002E-02-3.14134416E-05 1.12768579E-08-1.30845977E-12    2
 1.17561262E+04 2.45375059E+01 9.59161751E+01-1.68499540E+00 1.20732065E-02    3
-3.52575961E-05 3.70957952E-08-1.40715257E+03-3.24929514E+02                   4 
C4H6                    C   4H   6O   0N   0G    200.00   2666.67  468.11      1
-4.06409399E-01 4.18889002E-02-3.14134416E-05 1.12768579E-08-1.30845977E-12    2
 1.17561262E+04 2.45375059E+01-4.06409399E-01 4.18889002E-02-3.14134416E-05    3
 1.12768579E-08-1.30845977E-12 1.17561262E+04 2.45375059E+01                   4 
LC5H8(L)                C   5H   8O   0N   0G    200.00   2666.67 2000.00      1
 1.33853343E+00 3.82875420E-02-1.22222345E-05-4.13021975E-09 2.44480778E-12    2
 1.07497328E+04 2.10334611E+01 1.33853343E+00 3.82875420E-02-1.22222345E-05    3
-4.13021975E-09 2.44480778E-12 1.07497328E+04 2.10334611E+01                   4 
LC5H8                   C   5H   8O   0N   0G    200.00   2666.67 2000.00      1
 1.33853343E+00 3.82875420E-02-1.22222345E-05-4.13021975E-09 2.44480778E-12    2
 1.07497328E+04 2.10334611E+01 1.33853343E+00 3.82875420E-02-1.22222345E-05    3
-4.13021975E-09 2.44480778E-12 1.07497328E+04 2.10334611E+01                   4 
C15H32(L)               C  15H  32O   0N   0G    200.00   2666.67  726.01      1
-3.18365891E+00 1.84091232E-01-1.12775221E-04 2.92533766E-08-1.31410167E-12    2
-4.83976052E+04 5.94951153E+01 2.92018509E+01-2.16334898E-01 1.98951082E-03    3
-4.35598545E-06 3.23241832E-09-6.04161467E+04-8.20417437E+01                   4 
C15H32                  C  15H  32O   0N   0G    200.00   2666.67  726.01      1
-3.18365891E+00 1.84091232E-01-1.12775221E-04 2.92533766E-08-1.31410167E-12    2
-4.83976052E+04 5.94951153E+01-3.18365891E+00 1.84091232E-01-1.12775221E-04    3
 2.92533766E-08-1.31410167E-12-4.83976052E+04 5.94951153E+01                   4 
C15H30(L)               C  15H  30O   0N   0G    200.00   2666.67  729.91      1
-2.55014835E+00 1.74995356E-01-1.05722470E-04 2.64732637E-08-9.27066581E-13    2
-3.31764986E+04 5.77703902E+01 3.26801516E+01-2.57780825E-01 2.15851770E-03    3
-4.67691095E-06 3.45254557E-09-4.64553105E+04-9.67871461E+01                   4 
C15H30                  C  15H  30O   0N   0G    200.00   2666.67  729.91      1
-2.55014835E+00 1.74995356E-01-1.05722470E-04 2.64732637E-08-9.27066581E-13    2
-3.31764986E+04 5.77703902E+01-2.55014835E+00 1.74995356E-01-1.05722470E-04    3
 2.64732637E-08-9.27066581E-13-3.31764986E+04 5.77703902E+01                   4 
C15H28(L)               C  15H  28O   0N   0G    200.00   2666.67  739.51      1
-1.78836728E+00 1.65052080E-01-9.65503604E-05 2.20499357E-08-1.50766407E-13    2
-1.79707370E+04 5.39775988E+01 3.76838189E+01-3.15912618E-01 2.40894527E-03    3
-5.15550878E-06 3.78122466E-09-3.35547979E+04-1.20245768E+02                   4 
C15H28                  C  15H  28O   0N   0G    200.00   2666.67  739.51      1
-1.78836728E+00 1.65052080E-01-9.65503604E-05 2.20499357E-08-1.50766407E-13    2
-1.79707370E+04 5.39775988E+01-1.78836728E+00 1.65052080E-01-9.65503604E-05    3
 2.20499357E-08-1.50766407E-13-1.79707370E+04 5.39775988E+01                   4 
C39H80(L)               C  39H  80O   0N   0G    200.00   2666.67  911.16      1
-9.87283705E+00 4.85037789E-01-3.09684934E-04 8.74671269E-08-6.24368802E-12    2
-1.17465084E+05 1.33782002E+02 2.97287397E+01 1.10337835E-01 1.40614468E-03    3
-2.94764317E-06 1.88336808E-09-1.45014876E+05-6.69967722E+01                   4 
C39H80                  C  39H  80O   0N   0G    200.00   2666.67  911.16      1
-9.87283705E+00 4.85037789E-01-3.09684934E-04 8.74671269E-08-6.24368802E-12    2
-1.17465084E+05 1.33782002E+02-9.87283705E+00 4.85037789E-01-3.09684934E-04    3
 8.74671269E-08-6.24368802E-12-1.17465084E+05 1.33782002E+02                   4 
C39H78(L)               C  39H  78O   0N   0G    200.00   2666.67  913.76      1
-9.11105598E+00 4.75094513E-01-3.00512825E-04 8.30437989E-08-5.46738784E-12    2
-1.02259322E+05 1.31499784E+02 3.18452774E+01 8.93155977E-02 1.46215456E-03    3
-3.02661309E-06 1.92527239E-09-1.30921519E+05-7.64104406E+01                   4 
C39H78                  C  39H  78O   0N   0G    200.00   2666.67  913.76      1
-9.11105598E+00 4.75094513E-01-3.00512825E-04 8.30437989E-08-5.46738784E-12    2
-1.02259322E+05 1.31499784E+02-9.11105598E+00 4.75094513E-01-3.00512825E-04    3
 8.30437989E-08-5.46738784E-12-1.02259322E+05 1.31499784E+02                   4 
C39H76(L)               C  39H  76O   0N   0G    200.00   2666.67  915.64      1
-8.47754542E+00 4.65998637E-01-2.93460074E-04 8.02636860E-08-5.08035275E-12    2
-8.70377123E+04 1.28768010E+02 3.48099746E+01 5.94839198E-02 1.56122514E-03    3
-3.18592935E-06 2.01916747E-09-1.17470801E+05-9.12425157E+01                   4 
C39H76                  C  39H  76O   0N   0G    200.00   2666.67  915.64      1
-8.47754542E+00 4.65998637E-01-2.93460074E-04 8.02636860E-08-5.08035275E-12    2
-8.70377123E+04 1.28768010E+02-8.47754542E+00 4.65998637E-01-2.93460074E-04    3
 8.02636860E-08-5.08035275E-12-8.70377123E+04 1.28768010E+02                   4 
C15H31(L)               C  15H  31O   0N   0G    200.00   2666.67  726.10      1
-2.43639170E+00 1.75530125E-01-1.02403726E-04 2.27614371E-08 1.93796618E-13    2
-2.51501362E+04 5.83685560E+01 2.99493320E+01-2.24896406E-01 1.99988250E-03    3
-4.36247738E-06 3.23392622E-09-3.71756082E+04-8.31991411E+01                   4 
C15H31                  C  15H  31O   0N   0G    200.00   2666.67  726.10      1
-2.43639170E+00 1.75530125E-01-1.02403726E-04 2.27614371E-08 1.93796618E-13    2
-2.51501362E+04 5.83685560E+01-2.43639170E+00 1.75530125E-01-1.02403726E-04    3
 2.27614371E-08 1.93796618E-13-2.51501362E+04 5.83685560E+01                   4 
C15H29(L)               C  15H  29O   0N   0G    200.00   2666.67  730.01      1
-1.80288113E+00 1.66434249E-01-9.53509748E-05 1.99813242E-08 5.80831709E-13    2
-9.92902963E+03 5.66438309E+01 3.34276357E+01-2.66342340E-01 2.16888938E-03    3
-4.68340289E-06 3.45405347E-09-2.32161788E+04-9.79473569E+01                   4 
C15H29                  C  15H  29O   0N   0G    200.00   2666.67  730.01      1
-1.80288113E+00 1.66434249E-01-9.53509748E-05 1.99813242E-08 5.80831709E-13    2
-9.92902963E+03 5.66438309E+01-1.80288113E+00 1.66434249E-01-9.53509748E-05    3
 1.99813242E-08 5.80831709E-13-9.92902963E+03 5.66438309E+01                   4 
C15H27(L)               C  15H  27O   0N   0G    200.00   2666.67  739.53      1
-1.04110006E+00 1.56490973E-01-8.61788651E-05 1.55579962E-08 1.35713188E-12    2
 5.27673200E+03 5.28510395E+01 3.84313063E+01-3.24474139E-01 2.41931696E-03    3
-5.16200072E-06 3.78273256E-09-1.03089412E+04-1.21396483E+02                   4 
C15H27                  C  15H  27O   0N   0G    200.00   2666.67  739.53      1
-1.04110006E+00 1.56490973E-01-8.61788651E-05 1.55579962E-08 1.35713188E-12    2
 5.27673200E+03 5.28510395E+01-1.04110006E+00 1.56490973E-01-8.61788651E-05    3
 1.55579962E-08 1.35713188E-12 5.27673200E+03 5.28510395E+01                   4 
C39H79(L)               C  39H  79O   0N   0G    200.00   2666.67  911.18      1
-9.12556984E+00 4.76476682E-01-2.99313439E-04 8.09751874E-08-4.73578973E-12    2
-9.42176151E+04 1.32655443E+02 3.04763546E+01 1.01776076E-01 1.41651648E-03    3
-2.95413511E-06 1.88487597E-09-1.21770109E+05-6.81356872E+01                   4 
C39H79                  C  39H  79O   0N   0G    200.00   2666.67  911.18      1
-9.12556984E+00 4.76476682E-01-2.99313439E-04 8.09751874E-08-4.73578973E-12    2
-9.42176151E+04 1.32655443E+02-9.12556984E+00 4.76476682E-01-2.99313439E-04    3
 8.09751874E-08-4.73578973E-12-9.42176151E+04 1.32655443E+02                   4 
C39H77(L)               C  39H  77O   0N   0G    200.00   2666.67  913.78      1
-8.36378876E+00 4.66533406E-01-2.90141329E-04 7.65518594E-08-3.95948955E-12    2
-7.90118535E+04 1.30373225E+02 3.25928952E+01 8.07538308E-02 1.47252636E-03    3
-3.03310503E-06 1.92678029E-09-1.07677551E+05-7.75527060E+01                   4 
C39H77                  C  39H  77O   0N   0G    200.00   2666.67  913.78      1
-8.36378876E+00 4.66533406E-01-2.90141329E-04 7.65518594E-08-3.95948955E-12    2
-7.90118535E+04 1.30373225E+02-8.36378876E+00 4.66533406E-01-2.90141329E-04    3
 7.65518594E-08-3.95948955E-12-7.90118535E+04 1.30373225E+02                   4 
C39H75(L)               C  39H  75O   0N   0G    200.00   2666.67  915.66      1
-7.73027820E+00 4.57437530E-01-2.83088579E-04 7.37717465E-08-3.57245446E-12    2
-6.37902434E+04 1.27641451E+02 3.55575942E+01 5.09221501E-02 1.57159694E-03    3
-3.19242129E-06 2.02067537E-09-9.42273672E+04-9.23862872E+01                   4 
C39H75                  C  39H  75O   0N   0G    200.00   2666.67  915.66      1
-7.73027820E+00 4.57437530E-01-2.83088579E-04 7.37717465E-08-3.57245446E-12    2
-6.37902434E+04 1.27641451E+02-7.73027820E+00 4.57437530E-01-2.83088579E-04    3
 7.37717465E-08-3.57245446E-12-6.37902434E+04 1.27641451E+02                   4 
END